1

   Abaqus 2024                                  Date 09-Jun-2025   Time 09:14:49
   For use by UNIVERSITY OF WYOMING under license from Dassault Systemes or its subsidiary.

                                                                                 
                                                                                 
 STEP    1     INCREMENT     1     STEP TIME    0.00    


                        S T E P       1     C O U P L E D - T E M P E R A T U R E - D I S P L A C E M E N T   A N A L Y S I S


                                                                                          

     AUTOMATIC TIME CONTROL WITH -
          A SUGGESTED INITIAL TIME INCREMENT OF                1.000E-04
          AND A TOTAL TIME PERIOD OF                            1.00    
          THE MINIMUM TIME INCREMENT ALLOWED IS                1.000E-25
          THE MAXIMUM TIME INCREMENT ALLOWED IS                1.000E-02

          CREEP AND SWELLING EFFECTS ARE OMITTED IN THIS STEP

     THE SIZE OF THE TIME INCREMENT IS CONTROLLED BY -
          THE TEMPERATURE CHANGE PER INCREMENT NOT EXCEEDING           1.000E+13
          THE RATE DEPENDENCY WILL BE CONSIDERED IN THIS STEP

          CREEP AND SWELLING EFFECTS WILL BE IGNORED.

 CONVERGENCE TOLERANCE PARAMETERS FOR FORCE    
     CRITERION FOR RESIDUAL FORCE     FOR A NONLINEAR PROBLEM          5.000E-03
     CRITERION FOR DISP.    CORRECTION IN A NONLINEAR PROBLEM          1.000E-02
     INITIAL VALUE OF TIME AVERAGE FORCE                               1.000E-02
     AVERAGE FORCE     IS TIME AVERAGE FORCE    
     ALTERNATE CRIT. FOR RESIDUAL FORCE     FOR A NONLINEAR PROBLEM    2.000E-02
     CRITERION FOR ZERO FORCE     RELATIVE TO TIME AVRG. FORCE         1.000E-05
     CRITERION FOR RESIDUAL FORCE     WHEN THERE IS ZERO FLUX          1.000E-05
     CRITERION FOR DISP.    CORRECTION WHEN THERE IS ZERO FLUX         1.000E-03
     CRITERION FOR RESIDUAL FORCE     FOR A LINEAR INCREMENT           1.000E-08
     FIELD CONVERSION RATIO                                             1.00    
     CRITERION FOR ZERO FORCE     REL. TO TIME AVRG. MAX. FORCE        1.000E-05
     CRITERION FOR ZERO DISP.    RELATIVE TO CHARACTERISTIC LENGTH     1.000E-08

 CONVERGENCE TOLERANCE PARAMETERS FOR HEAT FLUX
     CRITERION FOR RESIDUAL HEAT FLUX FOR A NONLINEAR PROBLEM          5.000E-03
     CRITERION FOR TEMP.    CORRECTION IN A NONLINEAR PROBLEM          1.000E-02
     INITIAL VALUE OF TIME AVERAGE HEAT FLUX                           1.000E-02
     AVERAGE HEAT FLUX IS TIME AVERAGE HEAT FLUX
     ALTERNATE CRIT. FOR RESIDUAL HEAT FLUX FOR A NONLINEAR PROBLEM    2.000E-02
     CRITERION FOR ZERO HEAT FLUX RELATIVE TO TIME AVRG. HEAT FLUX     1.000E-05
     CRITERION FOR RESIDUAL HEAT FLUX WHEN THERE IS ZERO FLUX          1.000E-05
     CRITERION FOR TEMP.    CORRECTION WHEN THERE IS ZERO FLUX         1.000E-03
     CRITERION FOR RESIDUAL HEAT FLUX FOR A LINEAR INCREMENT           1.000E-08
     FIELD CONVERSION RATIO                                             1.00    
     CRITERION FOR ZERO HEAT FLUX REL. TO TIME AVRG. MAX. HEAT FLUX    1.000E-05

     VOLUMETRIC STRAIN COMPATIBILITY TOLERANCE FOR HYBRID SOLIDS       1.000E-05
     AXIAL STRAIN COMPATIBILITY TOLERANCE FOR HYBRID BEAMS             1.000E-05
     TRANS. SHEAR STRAIN COMPATIBILITY TOLERANCE FOR HYBRID BEAMS      1.000E-05
     SOFT CONTACT CONSTRAINT COMPATIBILITY TOLERANCE FOR P>P0          5.000E-03
     SOFT CONTACT CONSTRAINT COMPATIBILITY TOLERANCE FOR P=0.0         0.100    
     CONTACT FORCE ERROR TOLERANCE FOR CONVERT SDI=YES                 1.00    
     DISPLACEMENT COMPATIBILITY TOLERANCE FOR DCOUP ELEMENTS           1.000E-05
     ROTATION COMPATIBILITY TOLERANCE FOR DCOUP ELEMENTS               1.000E-05

 EQUILIBRIUM WILL BE CHECKED FOR SEVERE DISCONTINUITY ITERATIONS

 TIME INCREMENTATION CONTROL PARAMETERS:
     FIRST EQUILIBRIUM ITERATION FOR CONSECUTIVE DIVERGENCE CHECK              4
     EQUILIBRIUM ITERATION AT WHICH LOG. CONVERGENCE RATE CHECK BEGINS         8
     EQUILIBRIUM ITERATION AFTER WHICH ALTERNATE RESIDUAL IS USED              9
     MAXIMUM EQUILIBRIUM ITERATIONS ALLOWED                                   16
     EQUILIBRIUM ITERATION COUNT FOR CUT-BACK IN NEXT INCREMENT               10
     MAXIMUM EQUILIB. ITERS IN TWO INCREMENTS FOR TIME INCREMENT INCREASE      4
     MAXIMUM ITERATIONS FOR SEVERE DISCONTINUITIES                            50
     MAXIMUM ATTEMPTS ALLOWED IN AN INCREMENT                                  5
     MAXIMUM DISCON. ITERS IN TWO INCREMENTS FOR TIME INCREMENT INCREASE      50
     MAXIMUM CONTACT AUGMENTATIONS FOR *SURFACE BEHAVIOR,AUGMENTED LAGRANGE   50
     CONSECUTIVE INCS MEETING TIME INTEG. TOL. FOR TIME INC. INCREASE          3
     CUT-BACK FACTOR AFTER DIVERGENCE                                 0.2500    
     CUT-BACK FACTOR FOR TOO SLOW CONVERGENCE                         0.5000    
     CUT-BACK FACTOR AFTER TOO MANY EQUILIBRIUM ITERATIONS            0.7500    
     CUT-BACK FACTOR AFTER TOO MANY SEVERE DISCONTINUITY ITERATIONS   0.2500    
     CUT-BACK FACTOR AFTER PROBLEMS IN ELEMENT ASSEMBLY               0.2500    
     INCREASE FACTOR AFTER TWO INCREMENTS THAT CONVERGE QUICKLY        1.500    
     MAX. TIME INCREMENT INCREASE FACTOR ALLOWED                       1.500    
     MAX. TIME INCREMENT INCREASE FACTOR ALLOWED (DYNAMICS)            1.250    
     MAX. TIME INCREMENT INCREASE FACTOR ALLOWED (DIFFUSION)           2.000    
     MINIMUM TIME INCREMENT RATIO FOR EXTRAPOLATION TO OCCUR          0.1000    
     CUT-BACK FACTOR WHEN TIME INTEGRATION ACCURACY TOL. EXCEEDED     0.8500    
     MAX. RATIO OF TIME INTEG. MEASURE TO TOL. FOR TIME INC. INCREASE 0.7500    
     INCREASE FACTOR FOR TIME INCREMENT WHEN POSSIBLE                 0.8000    
     MIN. TIME INC. INCREASE FACTOR IN LINEAR TRANSIENT PROBLEMS      0.9500    
     MAX. RATIO OF TIME INCREMENT TO STABILITY LIMIT                   1.000    
     FRACTION OF STABILITY LIMIT FOR NEW TIME INCREMENT               0.9500    
     TIME INCREMENT INCREASE FACTOR BEFORE A TIME POINT                1.000    
     GLOBAL STABILIZATION CONTROL IS NOT USED

          PRINT OF INCREMENT NUMBER, TIME, ETC., EVERY    1  INCREMENTS

     THE MAXIMUM NUMBER OF INCREMENTS IN THIS STEP IS                 1000000

          LARGE DISPLACEMENT THEORY WILL BE USED

          UNSYMMETRIC MATRIX STORAGE AND SOLUTION WILL BE USED

     LINEAR EXTRAPOLATION WILL BE USED

     CHARACTERISTIC ELEMENT LENGTH     0.294    

     DETAILS REGARDING ACTUAL SOLUTION WAVEFRONT REQUESTED

     DETAILED OUTPUT OF DIAGNOSTICS TO DATABASE REQUESTED

     PRINT OF INCREMENT NUMBER, TIME, ETC., TO THE MESSAGE FILE EVERY     1  INCREMENTS

     COLLECTING MODEL CONSTRAINT INFORMATION FOR OVERCONSTRAINT CHECKS

     COLLECTING STEP CONSTRAINT INFORMATION FOR OVERCONSTRAINT CHECKS


  INCREMENT     1 STARTS. ATTEMPT NUMBER  1, TIME INCREMENT  1.000E-04
 
	UNSYMMETRIC NEW DIRECT SPARSE SOLVER RUNNING ON
 	1 HOST x 1 MPI RANK PER HOST x 1 THREAD PER RANK
        NUMBER OF EQUATIONS:  43736
        NUMBER OF RHS:        1
        NUMBER OF FLOPS:      2.157e+09
        SOLVER ELAPSED TIME:  132ms

               CONVERGENCE CHECKS FOR EQUILIBRIUM ITERATION     1


 AVERAGE FORCE                      6.149E-04   TIME AVG. FORCE       6.149E-04
 LARGEST SCALED RESIDUAL FORCE      1.733E-09   AT NODE       8562   DOF  2
   INSTANCE: PART-1-1                                                                        
  CORRESPONDING RESIDUAL FORCE      1.733E-09
 LARGEST INCREMENT OF DISP.         4.422E-06   AT NODE      16772   DOF  2
   INSTANCE: PART-1-1                                                                        
 LARGEST CORRECTION TO DISP.        4.422E-06   AT NODE      16772   DOF  2
   INSTANCE: PART-1-1                                                                        
          DISP.    CORRECTION TOO LARGE COMPARED TO DISP.    INCREMENT

 AVERAGE HEAT FLUX                  4.381E+10   TIME AVG. HEAT FLUX   4.381E+10
 LARGEST RESIDUAL HEAT FLUX         4.005E+11   AT NODE      17348   DOF 11
   INSTANCE: PART-1-1                                                                        
 LARGEST INCREMENT OF TEMP.         2.632E+09   AT NODE          1   DOF 11
   INSTANCE: PART-1-1                                                                        
 LARGEST CORRECTION TO TEMP.        2.632E+09   AT NODE          1   DOF 11
   INSTANCE: PART-1-1                                                                        
          HEAT FLUX EQUILIBRIUM NOT ACHIEVED WITHIN TOLERANCE.
 
	UNSYMMETRIC NEW DIRECT SPARSE SOLVER RUNNING ON
 	1 HOST x 1 MPI RANK PER HOST x 1 THREAD PER RANK
        NUMBER OF EQUATIONS:  43736
        NUMBER OF RHS:        1
        NUMBER OF FLOPS:      2.157e+09
        SOLVER ELAPSED TIME:  125ms

               CONVERGENCE CHECKS FOR EQUILIBRIUM ITERATION     2


 AVERAGE FORCE                      6.149E-04   TIME AVG. FORCE       6.149E-04
 LARGEST SCALED RESIDUAL FORCE      5.557E-14   AT NODE      18491   DOF  2
   INSTANCE: PART-1-1                                                                        
  CORRESPONDING RESIDUAL FORCE      5.557E-14
 LARGEST INCREMENT OF DISP.         4.422E-06   AT NODE      16772   DOF  2
   INSTANCE: PART-1-1                                                                        
 LARGEST CORRECTION TO DISP.        3.531E-13   AT NODE        644   DOF  1
   INSTANCE: PART-1-1                                                                        
          THE FORCE     EQUILIBRIUM EQUATIONS HAVE CONVERGED

 AVERAGE HEAT FLUX                  4.380E+10   TIME AVG. HEAT FLUX   4.380E+10
 LARGEST RESIDUAL HEAT FLUX        -4.421E+08   AT NODE      17348   DOF 11
   INSTANCE: PART-1-1                                                                        
 LARGEST INCREMENT OF TEMP.         2.632E+09   AT NODE          1   DOF 11
   INSTANCE: PART-1-1                                                                        
 LARGEST CORRECTION TO TEMP.        5.033E+06   AT NODE      16786   DOF 11
   INSTANCE: PART-1-1                                                                        
          HEAT FLUX EQUILIBRIUM NOT ACHIEVED WITHIN TOLERANCE.
 
	UNSYMMETRIC NEW DIRECT SPARSE SOLVER RUNNING ON
 	1 HOST x 1 MPI RANK PER HOST x 1 THREAD PER RANK
        NUMBER OF EQUATIONS:  43736
        NUMBER OF RHS:        1
        NUMBER OF FLOPS:      2.157e+09
        SOLVER ELAPSED TIME:  126ms

               CONVERGENCE CHECKS FOR EQUILIBRIUM ITERATION     3


 AVERAGE FORCE                      6.149E-04   TIME AVG. FORCE       6.149E-04
 LARGEST SCALED RESIDUAL FORCE     -6.184E-14   AT NODE      18525   DOF  2
   INSTANCE: PART-1-1                                                                        
  CORRESPONDING RESIDUAL FORCE     -6.184E-14
 LARGEST INCREMENT OF DISP.         4.422E-06   AT NODE      16772   DOF  2
   INSTANCE: PART-1-1                                                                        
 LARGEST CORRECTION TO DISP.        8.074E-19   AT NODE        886   DOF  2
   INSTANCE: PART-1-1                                                                        
          THE FORCE     EQUILIBRIUM EQUATIONS HAVE CONVERGED

 AVERAGE HEAT FLUX                  4.380E+10   TIME AVG. HEAT FLUX   4.380E+10
 LARGEST RESIDUAL HEAT FLUX         5.130E+05   AT NODE      17348   DOF 11
   INSTANCE: PART-1-1                                                                        
 LARGEST INCREMENT OF TEMP.         2.632E+09   AT NODE          1   DOF 11
   INSTANCE: PART-1-1                                                                        
 LARGEST CORRECTION TO TEMP.        9.638E+03   AT NODE       2312   DOF 11
   INSTANCE: PART-1-1                                                                        
          THE HEAT FLUX EQUILIBRIUM EQUATIONS HAVE CONVERGED

 MAXIMUM NON-PRESCRIBED INCREMENT IN TEMPERATURE IS   2.267E+09

 ITERATION SUMMARY FOR THE INCREMENT:   3 TOTAL ITERATIONS, OF WHICH
   0 ARE SEVERE DISCONTINUITY ITERATIONS AND  3 ARE EQUILIBRIUM ITERATIONS.

 TIME INCREMENT COMPLETED  1.000E-04,  FRACTION OF STEP COMPLETED  1.000E-04
 STEP TIME COMPLETED       1.000E-04,  TOTAL TIME COMPLETED        1.000E-04


  INCREMENT     2 STARTS. ATTEMPT NUMBER  1, TIME INCREMENT  1.000E-04
 
	UNSYMMETRIC NEW DIRECT SPARSE SOLVER RUNNING ON
 	1 HOST x 1 MPI RANK PER HOST x 1 THREAD PER RANK
        NUMBER OF EQUATIONS:  43736
        NUMBER OF RHS:        1
        NUMBER OF FLOPS:      2.157e+09
        SOLVER ELAPSED TIME:  125ms

               CONVERGENCE CHECKS FOR EQUILIBRIUM ITERATION     1


 AVERAGE FORCE                      1.269E-03   TIME AVG. FORCE       9.418E-04
 LARGEST SCALED RESIDUAL FORCE      5.139E-14   AT NODE      18477   DOF  2
   INSTANCE: PART-1-1                                                                        
  CORRESPONDING RESIDUAL FORCE      5.139E-14
 LARGEST INCREMENT OF DISP.         4.422E-06   AT NODE      16772   DOF  2
   INSTANCE: PART-1-1                                                                        
 LARGEST CORRECTION TO DISP.        1.050E-12   AT NODE       1085   DOF  1
   INSTANCE: PART-1-1                                                                        
          THE FORCE     EQUILIBRIUM RESPONSE WAS LINEAR IN THIS INCREMENT

 AVERAGE HEAT FLUX                  8.060E+11   TIME AVG. HEAT FLUX   4.249E+11
 LARGEST RESIDUAL HEAT FLUX        -4.338E+08   AT NODE      17348   DOF 11
   INSTANCE: PART-1-1                                                                        
 LARGEST INCREMENT OF TEMP.         2.632E+09   AT NODE          1   DOF 11
   INSTANCE: PART-1-1                                                                        
 LARGEST CORRECTION TO TEMP.        5.474E+08   AT NODE         72   DOF 11
   INSTANCE: PART-1-1                                                                        
 ESTIMATE OF TEMP.    CORRECTION   -5.993E+05
 HEAT FLUX EQUILIB. ACCEPTED BASED ON SMALL RESIDUAL AND ESTIMATED CORRECTION

 MAXIMUM NON-PRESCRIBED INCREMENT IN TEMPERATURE IS   2.437E+09

 ITERATION SUMMARY FOR THE INCREMENT:   1 TOTAL ITERATIONS, OF WHICH
   0 ARE SEVERE DISCONTINUITY ITERATIONS AND  1 ARE EQUILIBRIUM ITERATIONS.

 TIME INCREMENT COMPLETED  1.000E-04,  FRACTION OF STEP COMPLETED  2.000E-04
 STEP TIME COMPLETED       2.000E-04,  TOTAL TIME COMPLETED        2.000E-04


  INCREMENT     3 STARTS. ATTEMPT NUMBER  1, TIME INCREMENT  1.000E-04
 
	UNSYMMETRIC NEW DIRECT SPARSE SOLVER RUNNING ON
 	1 HOST x 1 MPI RANK PER HOST x 1 THREAD PER RANK
        NUMBER OF EQUATIONS:  43736
        NUMBER OF RHS:        1
        NUMBER OF FLOPS:      2.157e+09
        SOLVER ELAPSED TIME:  125ms

               CONVERGENCE CHECKS FOR EQUILIBRIUM ITERATION     1


 AVERAGE FORCE                      1.903E-03   TIME AVG. FORCE       1.262E-03
 LARGEST SCALED RESIDUAL FORCE     -6.884E-14   AT NODE      18477   DOF  2
   INSTANCE: PART-1-1                                                                        
  CORRESPONDING RESIDUAL FORCE     -6.884E-14
 LARGEST INCREMENT OF DISP.         4.422E-06   AT NODE      16772   DOF  2
   INSTANCE: PART-1-1                                                                        
 LARGEST CORRECTION TO DISP.        1.050E-12   AT NODE       1085   DOF  1
   INSTANCE: PART-1-1                                                                        
          THE FORCE     EQUILIBRIUM RESPONSE WAS LINEAR IN THIS INCREMENT

 AVERAGE HEAT FLUX                  8.005E+11   TIME AVG. HEAT FLUX   5.501E+11
 LARGEST RESIDUAL HEAT FLUX        -4.229E+08   AT NODE      17348   DOF 11
   INSTANCE: PART-1-1                                                                        
 LARGEST INCREMENT OF TEMP.         2.632E+09   AT NODE          1   DOF 11
   INSTANCE: PART-1-1                                                                        
 LARGEST CORRECTION TO TEMP.        3.077E+08   AT NODE       3504   DOF 11
   INSTANCE: PART-1-1                                                                        
 ESTIMATE OF TEMP.    CORRECTION   -3.341E+05
 HEAT FLUX EQUILIB. ACCEPTED BASED ON SMALL RESIDUAL AND ESTIMATED CORRECTION

 MAXIMUM NON-PRESCRIBED INCREMENT IN TEMPERATURE IS   2.486E+09
          TIME INCREMENT MAY NOW INCREASE TO    2.000E-04

 ITERATION SUMMARY FOR THE INCREMENT:   1 TOTAL ITERATIONS, OF WHICH
   0 ARE SEVERE DISCONTINUITY ITERATIONS AND  1 ARE EQUILIBRIUM ITERATIONS.

 TIME INCREMENT COMPLETED  1.000E-04,  FRACTION OF STEP COMPLETED  3.000E-04
 STEP TIME COMPLETED       3.000E-04,  TOTAL TIME COMPLETED        3.000E-04


  INCREMENT     4 STARTS. ATTEMPT NUMBER  1, TIME INCREMENT  2.000E-04
 
	UNSYMMETRIC NEW DIRECT SPARSE SOLVER RUNNING ON
 	1 HOST x 1 MPI RANK PER HOST x 1 THREAD PER RANK
        NUMBER OF EQUATIONS:  43736
        NUMBER OF RHS:        1
        NUMBER OF FLOPS:      2.157e+09
        SOLVER ELAPSED TIME:  126ms

               CONVERGENCE CHECKS FOR EQUILIBRIUM ITERATION     1


 AVERAGE FORCE                      3.164E-03   TIME AVG. FORCE       1.738E-03
 LARGEST SCALED RESIDUAL FORCE      1.370E-13   AT NODE      18531   DOF  2
   INSTANCE: PART-1-1                                                                        
  CORRESPONDING RESIDUAL FORCE      1.370E-13
 LARGEST INCREMENT OF DISP.         8.845E-06   AT NODE      16772   DOF  2
   INSTANCE: PART-1-1                                                                        
 LARGEST CORRECTION TO DISP.        2.377E-12   AT NODE       1085   DOF  1
   INSTANCE: PART-1-1                                                                        
          THE FORCE     EQUILIBRIUM RESPONSE WAS LINEAR IN THIS INCREMENT

 AVERAGE HEAT FLUX                  7.887E+11   TIME AVG. HEAT FLUX   6.097E+11
 LARGEST RESIDUAL HEAT FLUX        -1.628E+09   AT NODE      17348   DOF 11
   INSTANCE: PART-1-1                                                                        
 LARGEST INCREMENT OF TEMP.         5.265E+09   AT NODE          1   DOF 11
   INSTANCE: PART-1-1                                                                        
 LARGEST CORRECTION TO TEMP.        6.959E+08   AT NODE       3471   DOF 11
   INSTANCE: PART-1-1                                                                        
 ESTIMATE OF TEMP.    CORRECTION   -1.487E+06
 HEAT FLUX EQUILIB. ACCEPTED BASED ON SMALL RESIDUAL AND ESTIMATED CORRECTION

 MAXIMUM NON-PRESCRIBED INCREMENT IN TEMPERATURE IS   5.044E+09
          TIME INCREMENT MAY NOW INCREASE TO    4.000E-04

 ITERATION SUMMARY FOR THE INCREMENT:   1 TOTAL ITERATIONS, OF WHICH
   0 ARE SEVERE DISCONTINUITY ITERATIONS AND  1 ARE EQUILIBRIUM ITERATIONS.

 TIME INCREMENT COMPLETED  2.000E-04,  FRACTION OF STEP COMPLETED  5.000E-04
 STEP TIME COMPLETED       5.000E-04,  TOTAL TIME COMPLETED        5.000E-04


  INCREMENT     5 STARTS. ATTEMPT NUMBER  1, TIME INCREMENT  4.000E-04
 
	UNSYMMETRIC NEW DIRECT SPARSE SOLVER RUNNING ON
 	1 HOST x 1 MPI RANK PER HOST x 1 THREAD PER RANK
        NUMBER OF EQUATIONS:  43736
        NUMBER OF RHS:        1
        NUMBER OF FLOPS:      2.157e+09
        SOLVER ELAPSED TIME:  124ms

               CONVERGENCE CHECKS FOR EQUILIBRIUM ITERATION     1


 AVERAGE FORCE                      5.680E-03   TIME AVG. FORCE       2.526E-03
 LARGEST SCALED RESIDUAL FORCE     -1.068E-12   AT NODE        811   DOF  2
   INSTANCE: PART-1-1                                                                        
  CORRESPONDING RESIDUAL FORCE     -1.068E-12
 LARGEST INCREMENT OF DISP.         1.769E-05   AT NODE      16772   DOF  2
   INSTANCE: PART-1-1                                                                        
 LARGEST CORRECTION TO DISP.        1.065E-11   AT NODE       1085   DOF  1
   INSTANCE: PART-1-1                                                                        
          THE FORCE     EQUILIBRIUM RESPONSE WAS LINEAR IN THIS INCREMENT

 AVERAGE HEAT FLUX                  7.679E+11   TIME AVG. HEAT FLUX   6.414E+11
 LARGEST RESIDUAL HEAT FLUX        -6.032E+09   AT NODE      17348   DOF 11
   INSTANCE: PART-1-1                                                                        
 LARGEST INCREMENT OF TEMP.         1.053E+10   AT NODE          1   DOF 11
   INSTANCE: PART-1-1                                                                        
 LARGEST CORRECTION TO TEMP.        1.562E+09   AT NODE       3438   DOF 11
   INSTANCE: PART-1-1                                                                        
          HEAT FLUX EQUILIBRIUM NOT ACHIEVED WITHIN TOLERANCE.
 
	UNSYMMETRIC NEW DIRECT SPARSE SOLVER RUNNING ON
 	1 HOST x 1 MPI RANK PER HOST x 1 THREAD PER RANK
        NUMBER OF EQUATIONS:  43736
        NUMBER OF RHS:        1
        NUMBER OF FLOPS:      2.157e+09
        SOLVER ELAPSED TIME:  124ms

               CONVERGENCE CHECKS FOR EQUILIBRIUM ITERATION     2


 AVERAGE FORCE                      5.680E-03   TIME AVG. FORCE       2.526E-03
 LARGEST SCALED RESIDUAL FORCE     -1.958E-13   AT NODE      18523   DOF  2
   INSTANCE: PART-1-1                                                                        
  CORRESPONDING RESIDUAL FORCE     -1.958E-13
 LARGEST INCREMENT OF DISP.         1.769E-05   AT NODE      16772   DOF  2
   INSTANCE: PART-1-1                                                                        
 LARGEST CORRECTION TO DISP.        1.330E-16   AT NODE        508   DOF  2
   INSTANCE: PART-1-1                                                                        
          THE FORCE     EQUILIBRIUM EQUATIONS HAVE CONVERGED

 AVERAGE HEAT FLUX                  7.679E+11   TIME AVG. HEAT FLUX   6.414E+11
 LARGEST RESIDUAL HEAT FLUX         2.646E+07   AT NODE      17348   DOF 11
   INSTANCE: PART-1-1                                                                        
 LARGEST INCREMENT OF TEMP.         1.053E+10   AT NODE          1   DOF 11
   INSTANCE: PART-1-1                                                                        
 LARGEST CORRECTION TO TEMP.        2.559E+07   AT NODE       2245   DOF 11
   INSTANCE: PART-1-1                                                                        
          THE HEAT FLUX EQUILIBRIUM EQUATIONS HAVE CONVERGED

 MAXIMUM NON-PRESCRIBED INCREMENT IN TEMPERATURE IS   1.021E+10
          TIME INCREMENT MAY NOW INCREASE TO    6.000E-04

 ITERATION SUMMARY FOR THE INCREMENT:   2 TOTAL ITERATIONS, OF WHICH
   0 ARE SEVERE DISCONTINUITY ITERATIONS AND  2 ARE EQUILIBRIUM ITERATIONS.

 TIME INCREMENT COMPLETED  4.000E-04,  FRACTION OF STEP COMPLETED  9.000E-04
 STEP TIME COMPLETED       9.000E-04,  TOTAL TIME COMPLETED        9.000E-04


  INCREMENT     6 STARTS. ATTEMPT NUMBER  1, TIME INCREMENT  6.000E-04
 
	UNSYMMETRIC NEW DIRECT SPARSE SOLVER RUNNING ON
 	1 HOST x 1 MPI RANK PER HOST x 1 THREAD PER RANK
        NUMBER OF EQUATIONS:  43736
        NUMBER OF RHS:        1
        NUMBER OF FLOPS:      2.157e+09
        SOLVER ELAPSED TIME:  124ms

               CONVERGENCE CHECKS FOR EQUILIBRIUM ITERATION     1


 AVERAGE FORCE                      9.455E-03   TIME AVG. FORCE       3.681E-03
 LARGEST SCALED RESIDUAL FORCE     -3.729E-12   AT NODE        811   DOF  2
   INSTANCE: PART-1-1                                                                        
  CORRESPONDING RESIDUAL FORCE     -3.729E-12
 LARGEST INCREMENT OF DISP.         2.653E-05   AT NODE      16772   DOF  2
   INSTANCE: PART-1-1                                                                        
 LARGEST CORRECTION TO DISP.        2.900E-11   AT NODE       1085   DOF  1
   INSTANCE: PART-1-1                                                                        
          THE FORCE     EQUILIBRIUM RESPONSE WAS LINEAR IN THIS INCREMENT

 AVERAGE HEAT FLUX                  7.340E+11   TIME AVG. HEAT FLUX   6.568E+11
 LARGEST RESIDUAL HEAT FLUX        -1.206E+10   AT NODE      17348   DOF 11
   INSTANCE: PART-1-1                                                                        
 LARGEST INCREMENT OF TEMP.         1.579E+10   AT NODE          1   DOF 11
   INSTANCE: PART-1-1                                                                        
 LARGEST CORRECTION TO TEMP.        2.122E+09   AT NODE       3405   DOF 11
   INSTANCE: PART-1-1                                                                        
          HEAT FLUX EQUILIBRIUM NOT ACHIEVED WITHIN TOLERANCE.
 
	UNSYMMETRIC NEW DIRECT SPARSE SOLVER RUNNING ON
 	1 HOST x 1 MPI RANK PER HOST x 1 THREAD PER RANK
        NUMBER OF EQUATIONS:  43736
        NUMBER OF RHS:        1
        NUMBER OF FLOPS:      2.157e+09
        SOLVER ELAPSED TIME:  126ms

               CONVERGENCE CHECKS FOR EQUILIBRIUM ITERATION     2


 AVERAGE FORCE                      9.455E-03   TIME AVG. FORCE       3.681E-03
 LARGEST SCALED RESIDUAL FORCE     -2.086E-13   AT NODE      18461   DOF  2
   INSTANCE: PART-1-1                                                                        
  CORRESPONDING RESIDUAL FORCE     -2.086E-13
 LARGEST INCREMENT OF DISP.         2.653E-05   AT NODE      16772   DOF  2
   INSTANCE: PART-1-1                                                                        
 LARGEST CORRECTION TO DISP.        4.885E-16   AT NODE        533   DOF  2
   INSTANCE: PART-1-1                                                                        
          THE FORCE     EQUILIBRIUM EQUATIONS HAVE CONVERGED

 AVERAGE HEAT FLUX                  7.340E+11   TIME AVG. HEAT FLUX   6.568E+11
 LARGEST RESIDUAL HEAT FLUX         7.626E+07   AT NODE      17348   DOF 11
   INSTANCE: PART-1-1                                                                        
 LARGEST INCREMENT OF TEMP.         1.579E+10   AT NODE          1   DOF 11
   INSTANCE: PART-1-1                                                                        
 LARGEST CORRECTION TO TEMP.        5.384E+07   AT NODE         74   DOF 11
   INSTANCE: PART-1-1                                                                        
          THE HEAT FLUX EQUILIBRIUM EQUATIONS HAVE CONVERGED

 MAXIMUM NON-PRESCRIBED INCREMENT IN TEMPERATURE IS   1.542E+10
          TIME INCREMENT MAY NOW INCREASE TO    9.000E-04

 ITERATION SUMMARY FOR THE INCREMENT:   2 TOTAL ITERATIONS, OF WHICH
   0 ARE SEVERE DISCONTINUITY ITERATIONS AND  2 ARE EQUILIBRIUM ITERATIONS.

 TIME INCREMENT COMPLETED  6.000E-04,  FRACTION OF STEP COMPLETED  1.500E-03
 STEP TIME COMPLETED       1.500E-03,  TOTAL TIME COMPLETED        1.500E-03


  INCREMENT     7 STARTS. ATTEMPT NUMBER  1, TIME INCREMENT  9.000E-04
 
	UNSYMMETRIC NEW DIRECT SPARSE SOLVER RUNNING ON
 	1 HOST x 1 MPI RANK PER HOST x 1 THREAD PER RANK
        NUMBER OF EQUATIONS:  43736
        NUMBER OF RHS:        1
        NUMBER OF FLOPS:      2.157e+09
        SOLVER ELAPSED TIME:  125ms

               CONVERGENCE CHECKS FOR EQUILIBRIUM ITERATION     1


 AVERAGE FORCE                      1.511E-02   TIME AVG. FORCE       5.314E-03
 LARGEST SCALED RESIDUAL FORCE     -1.269E-11   AT NODE        811   DOF  2
   INSTANCE: PART-1-1                                                                        
  CORRESPONDING RESIDUAL FORCE     -1.269E-11
 LARGEST INCREMENT OF DISP.         3.980E-05   AT NODE      16772   DOF  2
   INSTANCE: PART-1-1                                                                        
 LARGEST CORRECTION TO DISP.        6.363E-11   AT NODE       1085   DOF  1
   INSTANCE: PART-1-1                                                                        
          THE FORCE     EQUILIBRIUM RESPONSE WAS LINEAR IN THIS INCREMENT

 AVERAGE HEAT FLUX                  6.956E+11   TIME AVG. HEAT FLUX   6.623E+11
 LARGEST RESIDUAL HEAT FLUX        -2.293E+10   AT NODE      17348   DOF 11
   INSTANCE: PART-1-1                                                                        
 LARGEST INCREMENT OF TEMP.         2.369E+10   AT NODE          1   DOF 11
   INSTANCE: PART-1-1                                                                        
 LARGEST CORRECTION TO TEMP.        3.067E+09   AT NODE       3383   DOF 11
   INSTANCE: PART-1-1                                                                        
          HEAT FLUX EQUILIBRIUM NOT ACHIEVED WITHIN TOLERANCE.
 
	UNSYMMETRIC NEW DIRECT SPARSE SOLVER RUNNING ON
 	1 HOST x 1 MPI RANK PER HOST x 1 THREAD PER RANK
        NUMBER OF EQUATIONS:  43736
        NUMBER OF RHS:        1
        NUMBER OF FLOPS:      2.157e+09
        SOLVER ELAPSED TIME:  125ms

               CONVERGENCE CHECKS FOR EQUILIBRIUM ITERATION     2


 AVERAGE FORCE                      1.511E-02   TIME AVG. FORCE       5.314E-03
 LARGEST SCALED RESIDUAL FORCE      4.669E-13   AT NODE      18510   DOF  2
   INSTANCE: PART-1-1                                                                        
  CORRESPONDING RESIDUAL FORCE      4.669E-13
 LARGEST INCREMENT OF DISP.         3.980E-05   AT NODE      16772   DOF  2
   INSTANCE: PART-1-1                                                                        
 LARGEST CORRECTION TO DISP.        1.654E-15   AT NODE        533   DOF  2
   INSTANCE: PART-1-1                                                                        
          THE FORCE     EQUILIBRIUM EQUATIONS HAVE CONVERGED

 AVERAGE HEAT FLUX                  6.956E+11   TIME AVG. HEAT FLUX   6.624E+11
 LARGEST RESIDUAL HEAT FLUX         2.057E+08   AT NODE      17348   DOF 11
   INSTANCE: PART-1-1                                                                        
 LARGEST INCREMENT OF TEMP.         2.369E+10   AT NODE          1   DOF 11
   INSTANCE: PART-1-1                                                                        
 LARGEST CORRECTION TO TEMP.        1.177E+08   AT NODE       3524   DOF 11
   INSTANCE: PART-1-1                                                                        
          THE HEAT FLUX EQUILIBRIUM EQUATIONS HAVE CONVERGED

 MAXIMUM NON-PRESCRIBED INCREMENT IN TEMPERATURE IS   2.326E+10
          TIME INCREMENT MAY NOW INCREASE TO    1.350E-03

 ITERATION SUMMARY FOR THE INCREMENT:   2 TOTAL ITERATIONS, OF WHICH
   0 ARE SEVERE DISCONTINUITY ITERATIONS AND  2 ARE EQUILIBRIUM ITERATIONS.

 TIME INCREMENT COMPLETED  9.000E-04,  FRACTION OF STEP COMPLETED  2.400E-03
 STEP TIME COMPLETED       2.400E-03,  TOTAL TIME COMPLETED        2.400E-03


  INCREMENT     8 STARTS. ATTEMPT NUMBER  1, TIME INCREMENT  1.350E-03
 
	UNSYMMETRIC NEW DIRECT SPARSE SOLVER RUNNING ON
 	1 HOST x 1 MPI RANK PER HOST x 1 THREAD PER RANK
        NUMBER OF EQUATIONS:  43736
        NUMBER OF RHS:        1
        NUMBER OF FLOPS:      2.157e+09
        SOLVER ELAPSED TIME:  125ms

               CONVERGENCE CHECKS FOR EQUILIBRIUM ITERATION     1


 AVERAGE FORCE                      2.360E-02   TIME AVG. FORCE       7.599E-03
 LARGEST SCALED RESIDUAL FORCE     -4.302E-11   AT NODE        811   DOF  2
   INSTANCE: PART-1-1                                                                        
  CORRESPONDING RESIDUAL FORCE     -4.302E-11
 LARGEST INCREMENT OF DISP.         5.970E-05   AT NODE      16772   DOF  2
   INSTANCE: PART-1-1                                                                        
 LARGEST CORRECTION TO DISP.        1.432E-10   AT NODE       1085   DOF  1
   INSTANCE: PART-1-1                                                                        
          THE FORCE     EQUILIBRIUM RESPONSE WAS LINEAR IN THIS INCREMENT

 AVERAGE HEAT FLUX                  6.430E+11   TIME AVG. HEAT FLUX   6.599E+11
 LARGEST RESIDUAL HEAT FLUX        -4.093E+10   AT NODE      17348   DOF 11
   INSTANCE: PART-1-1                                                                        
 LARGEST INCREMENT OF TEMP.         3.554E+10   AT NODE          1   DOF 11
   INSTANCE: PART-1-1                                                                        
 LARGEST CORRECTION TO TEMP.        4.612E+09   AT NODE       3361   DOF 11
   INSTANCE: PART-1-1                                                                        
          HEAT FLUX EQUILIBRIUM NOT ACHIEVED WITHIN TOLERANCE.
 
	UNSYMMETRIC NEW DIRECT SPARSE SOLVER RUNNING ON
 	1 HOST x 1 MPI RANK PER HOST x 1 THREAD PER RANK
        NUMBER OF EQUATIONS:  43736
        NUMBER OF RHS:        1
        NUMBER OF FLOPS:      2.157e+09
        SOLVER ELAPSED TIME:  126ms

               CONVERGENCE CHECKS FOR EQUILIBRIUM ITERATION     2


 AVERAGE FORCE                      2.360E-02   TIME AVG. FORCE       7.599E-03
 LARGEST SCALED RESIDUAL FORCE      5.875E-13   AT NODE      18510   DOF  2
   INSTANCE: PART-1-1                                                                        
  CORRESPONDING RESIDUAL FORCE      5.875E-13
 LARGEST INCREMENT OF DISP.         5.970E-05   AT NODE      16772   DOF  2
   INSTANCE: PART-1-1                                                                        
 LARGEST CORRECTION TO DISP.        5.595E-15   AT NODE        222   DOF  2
   INSTANCE: PART-1-1                                                                        
          THE FORCE     EQUILIBRIUM EQUATIONS HAVE CONVERGED

 AVERAGE HEAT FLUX                  6.431E+11   TIME AVG. HEAT FLUX   6.599E+11
 LARGEST RESIDUAL HEAT FLUX         5.122E+08   AT NODE      17348   DOF 11
   INSTANCE: PART-1-1                                                                        
 LARGEST INCREMENT OF TEMP.         3.554E+10   AT NODE          1   DOF 11
   INSTANCE: PART-1-1                                                                        
 LARGEST CORRECTION TO TEMP.        2.626E+08   AT NODE       3491   DOF 11
   INSTANCE: PART-1-1                                                                        
          THE HEAT FLUX EQUILIBRIUM EQUATIONS HAVE CONVERGED

 MAXIMUM NON-PRESCRIBED INCREMENT IN TEMPERATURE IS   3.504E+10
          TIME INCREMENT MAY NOW INCREASE TO    2.025E-03

 ITERATION SUMMARY FOR THE INCREMENT:   2 TOTAL ITERATIONS, OF WHICH
   0 ARE SEVERE DISCONTINUITY ITERATIONS AND  2 ARE EQUILIBRIUM ITERATIONS.

 TIME INCREMENT COMPLETED  1.350E-03,  FRACTION OF STEP COMPLETED  3.750E-03
 STEP TIME COMPLETED       3.750E-03,  TOTAL TIME COMPLETED        3.750E-03


  INCREMENT     9 STARTS. ATTEMPT NUMBER  1, TIME INCREMENT  2.025E-03
 
	UNSYMMETRIC NEW DIRECT SPARSE SOLVER RUNNING ON
 	1 HOST x 1 MPI RANK PER HOST x 1 THREAD PER RANK
        NUMBER OF EQUATIONS:  43736
        NUMBER OF RHS:        1
        NUMBER OF FLOPS:      2.157e+09
        SOLVER ELAPSED TIME:  126ms

               CONVERGENCE CHECKS FOR EQUILIBRIUM ITERATION     1


 AVERAGE FORCE                      3.631E-02   TIME AVG. FORCE       1.079E-02
 LARGEST SCALED RESIDUAL FORCE     -1.456E-10   AT NODE        811   DOF  2
   INSTANCE: PART-1-1                                                                        
  CORRESPONDING RESIDUAL FORCE     -1.456E-10
 LARGEST INCREMENT OF DISP.         8.955E-05   AT NODE      16772   DOF  2
   INSTANCE: PART-1-1                                                                        
 LARGEST CORRECTION TO DISP.        3.221E-10   AT NODE       1085   DOF  1
   INSTANCE: PART-1-1                                                                        
          THE FORCE     EQUILIBRIUM EQUATIONS HAVE CONVERGED

 AVERAGE HEAT FLUX                  5.706E+11   TIME AVG. HEAT FLUX   6.500E+11
 LARGEST RESIDUAL HEAT FLUX        -6.818E+10   AT NODE      17348   DOF 11
   INSTANCE: PART-1-1                                                                        
 LARGEST INCREMENT OF TEMP.         5.331E+10   AT NODE          1   DOF 11
   INSTANCE: PART-1-1                                                                        
 LARGEST CORRECTION TO TEMP.        7.163E+09   AT NODE       3415   DOF 11
   INSTANCE: PART-1-1                                                                        
          HEAT FLUX EQUILIBRIUM NOT ACHIEVED WITHIN TOLERANCE.
 
	UNSYMMETRIC NEW DIRECT SPARSE SOLVER RUNNING ON
 	1 HOST x 1 MPI RANK PER HOST x 1 THREAD PER RANK
        NUMBER OF EQUATIONS:  43736
        NUMBER OF RHS:        1
        NUMBER OF FLOPS:      2.157e+09
        SOLVER ELAPSED TIME:  125ms

               CONVERGENCE CHECKS FOR EQUILIBRIUM ITERATION     2


 AVERAGE FORCE                      3.631E-02   TIME AVG. FORCE       1.079E-02
 LARGEST SCALED RESIDUAL FORCE     -8.661E-13   AT NODE      18427   DOF  2
   INSTANCE: PART-1-1                                                                        
  CORRESPONDING RESIDUAL FORCE     -8.661E-13
 LARGEST INCREMENT OF DISP.         8.955E-05   AT NODE      16772   DOF  2
   INSTANCE: PART-1-1                                                                        
 LARGEST CORRECTION TO DISP.        1.891E-14   AT NODE        222   DOF  2
   INSTANCE: PART-1-1                                                                        
          THE FORCE     EQUILIBRIUM EQUATIONS HAVE CONVERGED

 AVERAGE HEAT FLUX                  5.715E+11   TIME AVG. HEAT FLUX   6.501E+11
 LARGEST RESIDUAL HEAT FLUX         1.172E+09   AT NODE      17348   DOF 11
   INSTANCE: PART-1-1                                                                        
 LARGEST INCREMENT OF TEMP.         5.331E+10   AT NODE          1   DOF 11
   INSTANCE: PART-1-1                                                                        
 LARGEST CORRECTION TO TEMP.        5.919E+08   AT NODE       3469   DOF 11
   INSTANCE: PART-1-1                                                                        
 ESTIMATE OF TEMP.    CORRECTION   -1.017E+07
 HEAT FLUX EQUILIB. ACCEPTED BASED ON SMALL RESIDUAL AND ESTIMATED CORRECTION

 MAXIMUM NON-PRESCRIBED INCREMENT IN TEMPERATURE IS   5.272E+10
          TIME INCREMENT MAY NOW INCREASE TO    3.037E-03

 ITERATION SUMMARY FOR THE INCREMENT:   2 TOTAL ITERATIONS, OF WHICH
   0 ARE SEVERE DISCONTINUITY ITERATIONS AND  2 ARE EQUILIBRIUM ITERATIONS.

 TIME INCREMENT COMPLETED  2.025E-03,  FRACTION OF STEP COMPLETED  5.775E-03
 STEP TIME COMPLETED       5.775E-03,  TOTAL TIME COMPLETED        5.775E-03


  INCREMENT    10 STARTS. ATTEMPT NUMBER  1, TIME INCREMENT  3.037E-03
 
	UNSYMMETRIC NEW DIRECT SPARSE SOLVER RUNNING ON
 	1 HOST x 1 MPI RANK PER HOST x 1 THREAD PER RANK
        NUMBER OF EQUATIONS:  43736
        NUMBER OF RHS:        1
        NUMBER OF FLOPS:      2.157e+09
        SOLVER ELAPSED TIME:  124ms

               CONVERGENCE CHECKS FOR EQUILIBRIUM ITERATION     1


 AVERAGE FORCE                      5.537E-02   TIME AVG. FORCE       1.525E-02
 LARGEST SCALED RESIDUAL FORCE     -4.918E-10   AT NODE        811   DOF  2
   INSTANCE: PART-1-1                                                                        
  CORRESPONDING RESIDUAL FORCE     -4.918E-10
 LARGEST INCREMENT OF DISP.         1.343E-04   AT NODE      16772   DOF  2
   INSTANCE: PART-1-1                                                                        
 LARGEST CORRECTION TO DISP.        7.245E-10   AT NODE       1085   DOF  1
   INSTANCE: PART-1-1                                                                        
          THE FORCE     EQUILIBRIUM EQUATIONS HAVE CONVERGED

 AVERAGE HEAT FLUX                  4.925E+11   TIME AVG. HEAT FLUX   6.344E+11
 LARGEST RESIDUAL HEAT FLUX        -1.073E+11   AT NODE      17348   DOF 11
   INSTANCE: PART-1-1                                                                        
 LARGEST INCREMENT OF TEMP.         7.996E+10   AT NODE          1   DOF 11
   INSTANCE: PART-1-1                                                                        
 LARGEST CORRECTION TO TEMP.        1.157E+10   AT NODE       3382   DOF 11
   INSTANCE: PART-1-1                                                                        
          HEAT FLUX EQUILIBRIUM NOT ACHIEVED WITHIN TOLERANCE.
 
	UNSYMMETRIC NEW DIRECT SPARSE SOLVER RUNNING ON
 	1 HOST x 1 MPI RANK PER HOST x 1 THREAD PER RANK
        NUMBER OF EQUATIONS:  43736
        NUMBER OF RHS:        1
        NUMBER OF FLOPS:      2.157e+09
        SOLVER ELAPSED TIME:  124ms

               CONVERGENCE CHECKS FOR EQUILIBRIUM ITERATION     2


 AVERAGE FORCE                      5.537E-02   TIME AVG. FORCE       1.525E-02
 LARGEST SCALED RESIDUAL FORCE     -1.027E-12   AT NODE      18531   DOF  2
   INSTANCE: PART-1-1                                                                        
  CORRESPONDING RESIDUAL FORCE     -1.027E-12
 LARGEST INCREMENT OF DISP.         1.343E-04   AT NODE      16772   DOF  2
   INSTANCE: PART-1-1                                                                        
 LARGEST CORRECTION TO DISP.        6.383E-14   AT NODE        560   DOF  2
   INSTANCE: PART-1-1                                                                        
          THE FORCE     EQUILIBRIUM EQUATIONS HAVE CONVERGED

 AVERAGE HEAT FLUX                  4.931E+11   TIME AVG. HEAT FLUX   6.344E+11
 LARGEST RESIDUAL HEAT FLUX         2.519E+09   AT NODE      17348   DOF 11
   INSTANCE: PART-1-1                                                                        
 LARGEST INCREMENT OF TEMP.         7.996E+10   AT NODE          1   DOF 11
   INSTANCE: PART-1-1                                                                        
 LARGEST CORRECTION TO TEMP.        1.336E+09   AT NODE       3436   DOF 11
   INSTANCE: PART-1-1                                                                        
 ESTIMATE OF TEMP.    CORRECTION   -3.137E+07
 HEAT FLUX EQUILIB. ACCEPTED BASED ON SMALL RESIDUAL AND ESTIMATED CORRECTION

 MAXIMUM NON-PRESCRIBED INCREMENT IN TEMPERATURE IS   7.926E+10
          TIME INCREMENT MAY NOW INCREASE TO    4.556E-03

 ITERATION SUMMARY FOR THE INCREMENT:   2 TOTAL ITERATIONS, OF WHICH
   0 ARE SEVERE DISCONTINUITY ITERATIONS AND  2 ARE EQUILIBRIUM ITERATIONS.

 TIME INCREMENT COMPLETED  3.037E-03,  FRACTION OF STEP COMPLETED  8.813E-03
 STEP TIME COMPLETED       8.813E-03,  TOTAL TIME COMPLETED        8.813E-03


  INCREMENT    11 STARTS. ATTEMPT NUMBER  1, TIME INCREMENT  4.556E-03
 
	UNSYMMETRIC NEW DIRECT SPARSE SOLVER RUNNING ON
 	1 HOST x 1 MPI RANK PER HOST x 1 THREAD PER RANK
        NUMBER OF EQUATIONS:  43736
        NUMBER OF RHS:        1
        NUMBER OF FLOPS:      2.157e+09
        SOLVER ELAPSED TIME:  125ms

               CONVERGENCE CHECKS FOR EQUILIBRIUM ITERATION     1


 AVERAGE FORCE                      8.395E-02   TIME AVG. FORCE       2.149E-02
 LARGEST SCALED RESIDUAL FORCE     -1.659E-09   AT NODE        811   DOF  2
   INSTANCE: PART-1-1                                                                        
  CORRESPONDING RESIDUAL FORCE     -1.659E-09
 LARGEST INCREMENT OF DISP.         2.015E-04   AT NODE      16772   DOF  2
   INSTANCE: PART-1-1                                                                        
 LARGEST CORRECTION TO DISP.        1.630E-09   AT NODE       1085   DOF  1
   INSTANCE: PART-1-1                                                                        
          THE FORCE     EQUILIBRIUM EQUATIONS HAVE CONVERGED

 AVERAGE HEAT FLUX                  4.058E+11   TIME AVG. HEAT FLUX   6.136E+11
 LARGEST RESIDUAL HEAT FLUX        -1.663E+11   AT NODE      17348   DOF 11
   INSTANCE: PART-1-1                                                                        
 LARGEST INCREMENT OF TEMP.         1.199E+11   AT NODE          1   DOF 11
   INSTANCE: PART-1-1                                                                        
 LARGEST CORRECTION TO TEMP.        1.906E+10   AT NODE       3360   DOF 11
   INSTANCE: PART-1-1                                                                        
          HEAT FLUX EQUILIBRIUM NOT ACHIEVED WITHIN TOLERANCE.
 
	UNSYMMETRIC NEW DIRECT SPARSE SOLVER RUNNING ON
 	1 HOST x 1 MPI RANK PER HOST x 1 THREAD PER RANK
        NUMBER OF EQUATIONS:  43736
        NUMBER OF RHS:        1
        NUMBER OF FLOPS:      2.157e+09
        SOLVER ELAPSED TIME:  125ms

               CONVERGENCE CHECKS FOR EQUILIBRIUM ITERATION     2


 AVERAGE FORCE                      8.395E-02   TIME AVG. FORCE       2.149E-02
 LARGEST SCALED RESIDUAL FORCE      1.987E-12   AT NODE      18525   DOF  2
   INSTANCE: PART-1-1                                                                        
  CORRESPONDING RESIDUAL FORCE      1.987E-12
 LARGEST INCREMENT OF DISP.         2.015E-04   AT NODE      16772   DOF  2
   INSTANCE: PART-1-1                                                                        
 LARGEST CORRECTION TO DISP.        2.153E-13   AT NODE        562   DOF  2
   INSTANCE: PART-1-1                                                                        
          THE FORCE     EQUILIBRIUM EQUATIONS HAVE CONVERGED

 AVERAGE HEAT FLUX                  4.071E+11   TIME AVG. HEAT FLUX   6.137E+11
 LARGEST RESIDUAL HEAT FLUX         5.400E+09   AT NODE      17348   DOF 11
   INSTANCE: PART-1-1                                                                        
 LARGEST INCREMENT OF TEMP.         1.199E+11   AT NODE          1   DOF 11
   INSTANCE: PART-1-1                                                                        
 LARGEST CORRECTION TO TEMP.        2.979E+09   AT NODE       3403   DOF 11
   INSTANCE: PART-1-1                                                                        
          HEAT FLUX EQUILIBRIUM NOT ACHIEVED WITHIN TOLERANCE.
 
	UNSYMMETRIC NEW DIRECT SPARSE SOLVER RUNNING ON
 	1 HOST x 1 MPI RANK PER HOST x 1 THREAD PER RANK
        NUMBER OF EQUATIONS:  43736
        NUMBER OF RHS:        1
        NUMBER OF FLOPS:      2.157e+09
        SOLVER ELAPSED TIME:  126ms

               CONVERGENCE CHECKS FOR EQUILIBRIUM ITERATION     3


 AVERAGE FORCE                      8.395E-02   TIME AVG. FORCE       2.149E-02
 LARGEST SCALED RESIDUAL FORCE     -2.296E-12   AT NODE      18527   DOF  2
   INSTANCE: PART-1-1                                                                        
  CORRESPONDING RESIDUAL FORCE     -2.296E-12
 LARGEST INCREMENT OF DISP.         2.015E-04   AT NODE      16772   DOF  2
   INSTANCE: PART-1-1                                                                        
 LARGEST CORRECTION TO DISP.       -1.125E-16   AT NODE        811   DOF  2
   INSTANCE: PART-1-1                                                                        
          THE FORCE     EQUILIBRIUM EQUATIONS HAVE CONVERGED

 AVERAGE HEAT FLUX                  4.071E+11   TIME AVG. HEAT FLUX   6.137E+11
 LARGEST RESIDUAL HEAT FLUX        -1.609E+08   AT NODE      17348   DOF 11
   INSTANCE: PART-1-1                                                                        
 LARGEST INCREMENT OF TEMP.         1.199E+11   AT NODE          1   DOF 11
   INSTANCE: PART-1-1                                                                        
 LARGEST CORRECTION TO TEMP.        4.578E+08   AT NODE       3403   DOF 11
   INSTANCE: PART-1-1                                                                        
          THE HEAT FLUX EQUILIBRIUM EQUATIONS HAVE CONVERGED

 MAXIMUM NON-PRESCRIBED INCREMENT IN TEMPERATURE IS   1.191E+11
          TIME INCREMENT MAY NOW INCREASE TO    6.834E-03

 ITERATION SUMMARY FOR THE INCREMENT:   3 TOTAL ITERATIONS, OF WHICH
   0 ARE SEVERE DISCONTINUITY ITERATIONS AND  3 ARE EQUILIBRIUM ITERATIONS.

 TIME INCREMENT COMPLETED  4.556E-03,  FRACTION OF STEP COMPLETED  1.337E-02
 STEP TIME COMPLETED       1.337E-02,  TOTAL TIME COMPLETED        1.337E-02


  INCREMENT    12 STARTS. ATTEMPT NUMBER  1, TIME INCREMENT  6.834E-03
 
	UNSYMMETRIC NEW DIRECT SPARSE SOLVER RUNNING ON
 	1 HOST x 1 MPI RANK PER HOST x 1 THREAD PER RANK
        NUMBER OF EQUATIONS:  43736
        NUMBER OF RHS:        1
        NUMBER OF FLOPS:      2.157e+09
        SOLVER ELAPSED TIME:  124ms

               CONVERGENCE CHECKS FOR EQUILIBRIUM ITERATION     1


 AVERAGE FORCE                      0.127       TIME AVG. FORCE       3.026E-02
 LARGEST SCALED RESIDUAL FORCE     -7.394E-04   AT NODE       1056   DOF  1
   INSTANCE: PART-1-1                                                                        
  CORRESPONDING RESIDUAL FORCE     -7.394E-04
 LARGEST INCREMENT OF DISP.         3.022E-04   AT NODE      16772   DOF  2
   INSTANCE: PART-1-1                                                                        
 LARGEST CORRECTION TO DISP.        8.420E-08   AT NODE        641   DOF  2
   INSTANCE: PART-1-1                                                                        
          FORCE     EQUILIBRIUM NOT ACHIEVED WITHIN TOLERANCE.

 AVERAGE HEAT FLUX                  3.167E+11   TIME AVG. HEAT FLUX   5.890E+11
 LARGEST RESIDUAL HEAT FLUX        -2.670E+11   AT NODE      17348   DOF 11
   INSTANCE: PART-1-1                                                                        
 LARGEST INCREMENT OF TEMP.         1.799E+11   AT NODE          1   DOF 11
   INSTANCE: PART-1-1                                                                        
 LARGEST CORRECTION TO TEMP.        3.120E+10   AT NODE       3327   DOF 11
   INSTANCE: PART-1-1                                                                        
          HEAT FLUX EQUILIBRIUM NOT ACHIEVED WITHIN TOLERANCE.
 
	UNSYMMETRIC NEW DIRECT SPARSE SOLVER RUNNING ON
 	1 HOST x 1 MPI RANK PER HOST x 1 THREAD PER RANK
        NUMBER OF EQUATIONS:  43736
        NUMBER OF RHS:        1
        NUMBER OF FLOPS:      2.157e+09
        SOLVER ELAPSED TIME:  124ms

               CONVERGENCE CHECKS FOR EQUILIBRIUM ITERATION     2


 AVERAGE FORCE                      0.127       TIME AVG. FORCE       3.027E-02
 LARGEST SCALED RESIDUAL FORCE      2.405E-05   AT NODE        720   DOF  2
   INSTANCE: PART-1-1                                                                        
  CORRESPONDING RESIDUAL FORCE      2.405E-05
 LARGEST INCREMENT OF DISP.         3.022E-04   AT NODE      16772   DOF  2
   INSTANCE: PART-1-1                                                                        
 LARGEST CORRECTION TO DISP.        6.370E-09   AT NODE       1061   DOF  1
   INSTANCE: PART-1-1                                                                        
          THE FORCE     EQUILIBRIUM EQUATIONS HAVE CONVERGED

 AVERAGE HEAT FLUX                  3.189E+11   TIME AVG. HEAT FLUX   5.892E+11
 LARGEST RESIDUAL HEAT FLUX         1.227E+10   AT NODE      17348   DOF 11
   INSTANCE: PART-1-1                                                                        
 LARGEST INCREMENT OF TEMP.         1.799E+11   AT NODE          1   DOF 11
   INSTANCE: PART-1-1                                                                        
 LARGEST CORRECTION TO TEMP.        6.446E+09   AT NODE       3251   DOF 11
   INSTANCE: PART-1-1                                                                        
          HEAT FLUX EQUILIBRIUM NOT ACHIEVED WITHIN TOLERANCE.
 
	UNSYMMETRIC NEW DIRECT SPARSE SOLVER RUNNING ON
 	1 HOST x 1 MPI RANK PER HOST x 1 THREAD PER RANK
        NUMBER OF EQUATIONS:  43736
        NUMBER OF RHS:        1
        NUMBER OF FLOPS:      2.157e+09
        SOLVER ELAPSED TIME:  125ms

               CONVERGENCE CHECKS FOR EQUILIBRIUM ITERATION     3


 AVERAGE FORCE                      0.127       TIME AVG. FORCE       3.027E-02
 LARGEST SCALED RESIDUAL FORCE     -4.902E-08   AT NODE        720   DOF  2
   INSTANCE: PART-1-1                                                                        
  CORRESPONDING RESIDUAL FORCE     -4.902E-08
 LARGEST INCREMENT OF DISP.         3.022E-04   AT NODE      16772   DOF  2
   INSTANCE: PART-1-1                                                                        
 LARGEST CORRECTION TO DISP.        7.365E-11   AT NODE        720   DOF  2
   INSTANCE: PART-1-1                                                                        
          THE FORCE     EQUILIBRIUM EQUATIONS HAVE CONVERGED

 AVERAGE HEAT FLUX                  3.186E+11   TIME AVG. HEAT FLUX   5.891E+11
 LARGEST RESIDUAL HEAT FLUX        -5.208E+08   AT NODE      17348   DOF 11
   INSTANCE: PART-1-1                                                                        
 LARGEST INCREMENT OF TEMP.         2.369E+11   AT NODE        774   DOF 11
   INSTANCE: PART-1-1                                                                        
 LARGEST CORRECTION TO TEMP.        6.703E+10   AT NODE        774   DOF 11
   INSTANCE: PART-1-1                                                                        
          TEMP.    CORRECTION TOO LARGE COMPARED TO TEMP.    INCREMENT
 
	UNSYMMETRIC NEW DIRECT SPARSE SOLVER RUNNING ON
 	1 HOST x 1 MPI RANK PER HOST x 1 THREAD PER RANK
        NUMBER OF EQUATIONS:  43736
        NUMBER OF RHS:        1
        NUMBER OF FLOPS:      2.157e+09
        SOLVER ELAPSED TIME:  126ms

               CONVERGENCE CHECKS FOR EQUILIBRIUM ITERATION     4


 AVERAGE FORCE                      0.127       TIME AVG. FORCE       3.027E-02
 LARGEST SCALED RESIDUAL FORCE     -1.699E-10   AT NODE        932   DOF  2
   INSTANCE: PART-1-1                                                                        
  CORRESPONDING RESIDUAL FORCE     -1.699E-10
 LARGEST INCREMENT OF DISP.         3.022E-04   AT NODE      16772   DOF  2
   INSTANCE: PART-1-1                                                                        
 LARGEST CORRECTION TO DISP.        1.216E-13   AT NODE        741   DOF  2
   INSTANCE: PART-1-1                                                                        
          THE FORCE     EQUILIBRIUM EQUATIONS HAVE CONVERGED

 AVERAGE HEAT FLUX                  3.188E+11   TIME AVG. HEAT FLUX   5.892E+11
 LARGEST RESIDUAL HEAT FLUX         2.315E+07   AT NODE      17348   DOF 11
   INSTANCE: PART-1-1                                                                        
 LARGEST INCREMENT OF TEMP.         2.369E+11   AT NODE        649   DOF 11
   INSTANCE: PART-1-1                                                                        
 LARGEST CORRECTION TO TEMP.        9.602E+09   AT NODE        649   DOF 11
   INSTANCE: PART-1-1                                                                        
 ESTIMATE OF TEMP.    CORRECTION   -4.268E+08
 HEAT FLUX EQUILIB. ACCEPTED BASED ON SMALL RESIDUAL AND ESTIMATED CORRECTION

 MAXIMUM NON-PRESCRIBED INCREMENT IN TEMPERATURE IS   2.369E+11
          TIME INCREMENT MAY NOW INCREASE TO    1.000E-02

 ITERATION SUMMARY FOR THE INCREMENT:   4 TOTAL ITERATIONS, OF WHICH
   0 ARE SEVERE DISCONTINUITY ITERATIONS AND  4 ARE EQUILIBRIUM ITERATIONS.

 TIME INCREMENT COMPLETED  6.834E-03,  FRACTION OF STEP COMPLETED  2.020E-02
 STEP TIME COMPLETED       2.020E-02,  TOTAL TIME COMPLETED        2.020E-02


  INCREMENT    13 STARTS. ATTEMPT NUMBER  1, TIME INCREMENT  1.000E-02
 
	UNSYMMETRIC NEW DIRECT SPARSE SOLVER RUNNING ON
 	1 HOST x 1 MPI RANK PER HOST x 1 THREAD PER RANK
        NUMBER OF EQUATIONS:  43736
        NUMBER OF RHS:        1
        NUMBER OF FLOPS:      2.157e+09
        SOLVER ELAPSED TIME:  124ms

               CONVERGENCE CHECKS FOR EQUILIBRIUM ITERATION     1


 AVERAGE FORCE                      0.189       TIME AVG. FORCE       4.250E-02
 LARGEST SCALED RESIDUAL FORCE     -2.012E-03   AT NODE        399   DOF  1
   INSTANCE: PART-1-1                                                                        
  CORRESPONDING RESIDUAL FORCE     -2.012E-03
 LARGEST INCREMENT OF DISP.         4.422E-04   AT NODE      16772   DOF  2
   INSTANCE: PART-1-1                                                                        
 LARGEST CORRECTION TO DISP.        3.263E-07   AT NODE        639   DOF  1
   INSTANCE: PART-1-1                                                                        
          FORCE     EQUILIBRIUM NOT ACHIEVED WITHIN TOLERANCE.

 AVERAGE HEAT FLUX                  2.023E+11   TIME AVG. HEAT FLUX   5.594E+11
 LARGEST RESIDUAL HEAT FLUX        -4.190E+11   AT NODE      17348   DOF 11
   INSTANCE: PART-1-1                                                                        
 LARGEST INCREMENT OF TEMP.         2.727E+11   AT NODE        763   DOF 11
   INSTANCE: PART-1-1                                                                        
 LARGEST CORRECTION TO TEMP.       -7.437E+10   AT NODE        649   DOF 11
   INSTANCE: PART-1-1                                                                        
          HEAT FLUX EQUILIBRIUM NOT ACHIEVED WITHIN TOLERANCE.
 
	UNSYMMETRIC NEW DIRECT SPARSE SOLVER RUNNING ON
 	1 HOST x 1 MPI RANK PER HOST x 1 THREAD PER RANK
        NUMBER OF EQUATIONS:  43736
        NUMBER OF RHS:        1
        NUMBER OF FLOPS:      2.157e+09
        SOLVER ELAPSED TIME:  126ms

               CONVERGENCE CHECKS FOR EQUILIBRIUM ITERATION     2


 AVERAGE FORCE                      0.189       TIME AVG. FORCE       4.251E-02
 LARGEST SCALED RESIDUAL FORCE      1.087E-04   AT NODE       1021   DOF  1
   INSTANCE: PART-1-1                                                                        
  CORRESPONDING RESIDUAL FORCE      1.087E-04
 LARGEST INCREMENT OF DISP.         4.422E-04   AT NODE      16772   DOF  2
   INSTANCE: PART-1-1                                                                        
 LARGEST CORRECTION TO DISP.        5.807E-08   AT NODE        639   DOF  1
   INSTANCE: PART-1-1                                                                        
          THE FORCE     EQUILIBRIUM EQUATIONS HAVE CONVERGED

 AVERAGE HEAT FLUX                  2.053E+11   TIME AVG. HEAT FLUX   5.596E+11
 LARGEST RESIDUAL HEAT FLUX         2.677E+10   AT NODE      17348   DOF 11
   INSTANCE: PART-1-1                                                                        
 LARGEST INCREMENT OF TEMP.         4.225E+11   AT NODE        649   DOF 11
   INSTANCE: PART-1-1                                                                        
 LARGEST CORRECTION TO TEMP.        1.502E+11   AT NODE        649   DOF 11
   INSTANCE: PART-1-1                                                                        
          HEAT FLUX EQUILIBRIUM NOT ACHIEVED WITHIN TOLERANCE.
 
	UNSYMMETRIC NEW DIRECT SPARSE SOLVER RUNNING ON
 	1 HOST x 1 MPI RANK PER HOST x 1 THREAD PER RANK
        NUMBER OF EQUATIONS:  43736
        NUMBER OF RHS:        1
        NUMBER OF FLOPS:      2.157e+09
        SOLVER ELAPSED TIME:  124ms

               CONVERGENCE CHECKS FOR EQUILIBRIUM ITERATION     3


 AVERAGE FORCE                      0.189       TIME AVG. FORCE       4.251E-02
 LARGEST SCALED RESIDUAL FORCE     -4.592E-06   AT NODE        149   DOF  1
   INSTANCE: PART-1-1                                                                        
  CORRESPONDING RESIDUAL FORCE     -4.592E-06
 LARGEST INCREMENT OF DISP.         4.422E-04   AT NODE      16772   DOF  2
   INSTANCE: PART-1-1                                                                        
 LARGEST CORRECTION TO DISP.        1.617E-09   AT NODE        647   DOF  1
   INSTANCE: PART-1-1                                                                        
          THE FORCE     EQUILIBRIUM EQUATIONS HAVE CONVERGED

 AVERAGE HEAT FLUX                  2.129E+11   TIME AVG. HEAT FLUX   5.602E+11
 LARGEST RESIDUAL HEAT FLUX        -1.623E+09   AT NODE      17348   DOF 11
   INSTANCE: PART-1-1                                                                        
 LARGEST INCREMENT OF TEMP.         3.949E+11   AT NODE        638   DOF 11
   INSTANCE: PART-1-1                                                                        
 LARGEST CORRECTION TO TEMP.       -9.904E+10   AT NODE        763   DOF 11
   INSTANCE: PART-1-1                                                                        
          TEMP.    CORRECTION TOO LARGE COMPARED TO TEMP.    INCREMENT
 
	UNSYMMETRIC NEW DIRECT SPARSE SOLVER RUNNING ON
 	1 HOST x 1 MPI RANK PER HOST x 1 THREAD PER RANK
        NUMBER OF EQUATIONS:  43736
        NUMBER OF RHS:        1
        NUMBER OF FLOPS:      2.157e+09
        SOLVER ELAPSED TIME:  124ms

               CONVERGENCE CHECKS FOR EQUILIBRIUM ITERATION     4


 AVERAGE FORCE                      0.189       TIME AVG. FORCE       4.251E-02
 LARGEST SCALED RESIDUAL FORCE     -1.051E-08   AT NODE        370   DOF  1
   INSTANCE: PART-1-1                                                                        
  CORRESPONDING RESIDUAL FORCE     -1.051E-08
 LARGEST INCREMENT OF DISP.         4.422E-04   AT NODE      16772   DOF  2
   INSTANCE: PART-1-1                                                                        
 LARGEST CORRECTION TO DISP.        1.649E-11   AT NODE        346   DOF  1
   INSTANCE: PART-1-1                                                                        
          THE FORCE     EQUILIBRIUM EQUATIONS HAVE CONVERGED

 AVERAGE HEAT FLUX                  2.128E+11   TIME AVG. HEAT FLUX   5.602E+11
 LARGEST RESIDUAL HEAT FLUX         1.010E+08   AT NODE      17348   DOF 11
   INSTANCE: PART-1-1                                                                        
 LARGEST INCREMENT OF TEMP.         3.962E+11   AT NODE        651   DOF 11
   INSTANCE: PART-1-1                                                                        
 LARGEST CORRECTION TO TEMP.        2.434E+10   AT NODE        651   DOF 11
   INSTANCE: PART-1-1                                                                        
 ESTIMATE OF TEMP.    CORRECTION   -1.515E+09
 HEAT FLUX EQUILIB. ACCEPTED BASED ON SMALL RESIDUAL AND ESTIMATED CORRECTION

 MAXIMUM NON-PRESCRIBED INCREMENT IN TEMPERATURE IS   3.962E+11

 ITERATION SUMMARY FOR THE INCREMENT:   4 TOTAL ITERATIONS, OF WHICH
   0 ARE SEVERE DISCONTINUITY ITERATIONS AND  4 ARE EQUILIBRIUM ITERATIONS.

 TIME INCREMENT COMPLETED  1.000E-02,  FRACTION OF STEP COMPLETED  3.020E-02
 STEP TIME COMPLETED       3.020E-02,  TOTAL TIME COMPLETED        3.020E-02


  INCREMENT    14 STARTS. ATTEMPT NUMBER  1, TIME INCREMENT  1.000E-02
 
	UNSYMMETRIC NEW DIRECT SPARSE SOLVER RUNNING ON
 	1 HOST x 1 MPI RANK PER HOST x 1 THREAD PER RANK
        NUMBER OF EQUATIONS:  43736
        NUMBER OF RHS:        1
        NUMBER OF FLOPS:      2.157e+09
        SOLVER ELAPSED TIME:  124ms

               CONVERGENCE CHECKS FOR EQUILIBRIUM ITERATION     1


 AVERAGE FORCE                      0.252       TIME AVG. FORCE       5.749E-02
 LARGEST SCALED RESIDUAL FORCE     -2.848E-03   AT NODE        402   DOF  1
   INSTANCE: PART-1-1                                                                        
  CORRESPONDING RESIDUAL FORCE     -2.848E-03
 LARGEST INCREMENT OF DISP.         4.422E-04   AT NODE      16772   DOF  2
   INSTANCE: PART-1-1                                                                        
 LARGEST CORRECTION TO DISP.        5.029E-07   AT NODE        639   DOF  1
   INSTANCE: PART-1-1                                                                        
          FORCE     EQUILIBRIUM NOT ACHIEVED WITHIN TOLERANCE.

 AVERAGE HEAT FLUX                  1.173E+11   TIME AVG. HEAT FLUX   5.286E+11
 LARGEST RESIDUAL HEAT FLUX        -2.994E+11   AT NODE      17348   DOF 11
   INSTANCE: PART-1-1                                                                        
 LARGEST INCREMENT OF TEMP.         2.937E+11   AT NODE        769   DOF 11
   INSTANCE: PART-1-1                                                                        
 LARGEST CORRECTION TO TEMP.       -1.036E+11   AT NODE        651   DOF 11
   INSTANCE: PART-1-1                                                                        
          HEAT FLUX EQUILIBRIUM NOT ACHIEVED WITHIN TOLERANCE.
 
	UNSYMMETRIC NEW DIRECT SPARSE SOLVER RUNNING ON
 	1 HOST x 1 MPI RANK PER HOST x 1 THREAD PER RANK
        NUMBER OF EQUATIONS:  43736
        NUMBER OF RHS:        1
        NUMBER OF FLOPS:      2.157e+09
        SOLVER ELAPSED TIME:  126ms

               CONVERGENCE CHECKS FOR EQUILIBRIUM ITERATION     2


 AVERAGE FORCE                      0.252       TIME AVG. FORCE       5.749E-02
 LARGEST SCALED RESIDUAL FORCE     -9.131E-05   AT NODE        352   DOF  2
   INSTANCE: PART-1-1                                                                        
  CORRESPONDING RESIDUAL FORCE     -9.131E-05
 LARGEST INCREMENT OF DISP.         4.422E-04   AT NODE      16772   DOF  2
   INSTANCE: PART-1-1                                                                        
 LARGEST CORRECTION TO DISP.        5.381E-08   AT NODE        658   DOF  1
   INSTANCE: PART-1-1                                                                        
          THE FORCE     EQUILIBRIUM EQUATIONS HAVE CONVERGED

 AVERAGE HEAT FLUX                  1.184E+11   TIME AVG. HEAT FLUX   5.287E+11
 LARGEST RESIDUAL HEAT FLUX         1.798E+10   AT NODE      17348   DOF 11
   INSTANCE: PART-1-1                                                                        
 LARGEST INCREMENT OF TEMP.         5.040E+11   AT NODE        651   DOF 11
   INSTANCE: PART-1-1                                                                        
 LARGEST CORRECTION TO TEMP.        2.114E+11   AT NODE        651   DOF 11
   INSTANCE: PART-1-1                                                                        
          HEAT FLUX EQUILIBRIUM NOT ACHIEVED WITHIN TOLERANCE.
 
	UNSYMMETRIC NEW DIRECT SPARSE SOLVER RUNNING ON
 	1 HOST x 1 MPI RANK PER HOST x 1 THREAD PER RANK
        NUMBER OF EQUATIONS:  43736
        NUMBER OF RHS:        1
        NUMBER OF FLOPS:      2.157e+09
        SOLVER ELAPSED TIME:  124ms

               CONVERGENCE CHECKS FOR EQUILIBRIUM ITERATION     3


 AVERAGE FORCE                      0.252       TIME AVG. FORCE       5.749E-02
 LARGEST SCALED RESIDUAL FORCE      3.292E-07   AT NODE        110   DOF  1
   INSTANCE: PART-1-1                                                                        
  CORRESPONDING RESIDUAL FORCE      3.292E-07
 LARGEST INCREMENT OF DISP.         4.422E-04   AT NODE      16772   DOF  2
   INSTANCE: PART-1-1                                                                        
 LARGEST CORRECTION TO DISP.        1.645E-09   AT NODE        677   DOF  1
   INSTANCE: PART-1-1                                                                        
          THE FORCE     EQUILIBRIUM EQUATIONS HAVE CONVERGED

 AVERAGE HEAT FLUX                  1.235E+11   TIME AVG. HEAT FLUX   5.290E+11
 LARGEST RESIDUAL HEAT FLUX         1.059E+09   AT NODE        152   DOF 11
   INSTANCE: PART-1-1                                                                        
 LARGEST INCREMENT OF TEMP.         4.811E+11   AT NODE       1122   DOF 11
   INSTANCE: PART-1-1                                                                        
 LARGEST CORRECTION TO TEMP.       -1.336E+11   AT NODE        651   DOF 11
   INSTANCE: PART-1-1                                                                        
          TEMP.    CORRECTION TOO LARGE COMPARED TO TEMP.    INCREMENT
 
	UNSYMMETRIC NEW DIRECT SPARSE SOLVER RUNNING ON
 	1 HOST x 1 MPI RANK PER HOST x 1 THREAD PER RANK
        NUMBER OF EQUATIONS:  43736
        NUMBER OF RHS:        1
        NUMBER OF FLOPS:      2.157e+09
        SOLVER ELAPSED TIME:  124ms

               CONVERGENCE CHECKS FOR EQUILIBRIUM ITERATION     4


 AVERAGE FORCE                      0.252       TIME AVG. FORCE       5.749E-02
 LARGEST SCALED RESIDUAL FORCE      1.238E-09   AT NODE       1810   DOF  2
   INSTANCE: PART-1-1                                                                        
  CORRESPONDING RESIDUAL FORCE      1.238E-09
 LARGEST INCREMENT OF DISP.         4.422E-04   AT NODE      16772   DOF  2
   INSTANCE: PART-1-1                                                                        
 LARGEST CORRECTION TO DISP.        4.596E-12   AT NODE        634   DOF  1
   INSTANCE: PART-1-1                                                                        
          THE FORCE     EQUILIBRIUM EQUATIONS HAVE CONVERGED

 AVERAGE HEAT FLUX                  1.234E+11   TIME AVG. HEAT FLUX   5.290E+11
 LARGEST RESIDUAL HEAT FLUX         6.166E+07   AT NODE      17348   DOF 11
   INSTANCE: PART-1-1                                                                        
 LARGEST INCREMENT OF TEMP.         4.539E+11   AT NODE       1122   DOF 11
   INSTANCE: PART-1-1                                                                        
 LARGEST CORRECTION TO TEMP.        3.720E+10   AT NODE        152   DOF 11
   INSTANCE: PART-1-1                                                                        
 ESTIMATE OF TEMP.    CORRECTION    2.166E+09
 HEAT FLUX EQUILIB. ACCEPTED BASED ON SMALL RESIDUAL AND ESTIMATED CORRECTION

 MAXIMUM NON-PRESCRIBED INCREMENT IN TEMPERATURE IS   4.539E+11

 ITERATION SUMMARY FOR THE INCREMENT:   4 TOTAL ITERATIONS, OF WHICH
   0 ARE SEVERE DISCONTINUITY ITERATIONS AND  4 ARE EQUILIBRIUM ITERATIONS.

 TIME INCREMENT COMPLETED  1.000E-02,  FRACTION OF STEP COMPLETED  4.020E-02
 STEP TIME COMPLETED       4.020E-02,  TOTAL TIME COMPLETED        4.020E-02


  INCREMENT    15 STARTS. ATTEMPT NUMBER  1, TIME INCREMENT  1.000E-02
 
	UNSYMMETRIC NEW DIRECT SPARSE SOLVER RUNNING ON
 	1 HOST x 1 MPI RANK PER HOST x 1 THREAD PER RANK
        NUMBER OF EQUATIONS:  43736
        NUMBER OF RHS:        1
        NUMBER OF FLOPS:      2.157e+09
        SOLVER ELAPSED TIME:  125ms

               CONVERGENCE CHECKS FOR EQUILIBRIUM ITERATION     1


 AVERAGE FORCE                      0.315       TIME AVG. FORCE       7.467E-02
 LARGEST SCALED RESIDUAL FORCE     -2.593E-03   AT NODE       1750   DOF  1
   INSTANCE: PART-1-1                                                                        
  CORRESPONDING RESIDUAL FORCE     -2.593E-03
 LARGEST INCREMENT OF DISP.         4.422E-04   AT NODE      16772   DOF  2
   INSTANCE: PART-1-1                                                                        
 LARGEST CORRECTION TO DISP.        5.504E-07   AT NODE        639   DOF  1
   INSTANCE: PART-1-1                                                                        
          FORCE     EQUILIBRIUM NOT ACHIEVED WITHIN TOLERANCE.

 AVERAGE HEAT FLUX                  7.619E+10   TIME AVG. HEAT FLUX   4.988E+11
 LARGEST RESIDUAL HEAT FLUX        -2.127E+11   AT NODE      17348   DOF 11
   INSTANCE: PART-1-1                                                                        
 LARGEST INCREMENT OF TEMP.         3.149E+11   AT NODE        645   DOF 11
   INSTANCE: PART-1-1                                                                        
 LARGEST CORRECTION TO TEMP.       -1.408E+11   AT NODE       1122   DOF 11
   INSTANCE: PART-1-1                                                                        
          HEAT FLUX EQUILIBRIUM NOT ACHIEVED WITHIN TOLERANCE.
 
	UNSYMMETRIC NEW DIRECT SPARSE SOLVER RUNNING ON
 	1 HOST x 1 MPI RANK PER HOST x 1 THREAD PER RANK
        NUMBER OF EQUATIONS:  43736
        NUMBER OF RHS:        1
        NUMBER OF FLOPS:      2.157e+09
        SOLVER ELAPSED TIME:  125ms

               CONVERGENCE CHECKS FOR EQUILIBRIUM ITERATION     2


 AVERAGE FORCE                      0.315       TIME AVG. FORCE       7.467E-02
 LARGEST SCALED RESIDUAL FORCE     -1.880E-04   AT NODE       1729   DOF  2
   INSTANCE: PART-1-1                                                                        
  CORRESPONDING RESIDUAL FORCE     -1.880E-04
 LARGEST INCREMENT OF DISP.         4.422E-04   AT NODE      16772   DOF  2
   INSTANCE: PART-1-1                                                                        
 LARGEST CORRECTION TO DISP.        5.135E-08   AT NODE        666   DOF  1
   INSTANCE: PART-1-1                                                                        
          THE FORCE     EQUILIBRIUM EQUATIONS HAVE CONVERGED

 AVERAGE HEAT FLUX                  7.947E+10   TIME AVG. HEAT FLUX   4.990E+11
 LARGEST RESIDUAL HEAT FLUX         1.173E+10   AT NODE      17348   DOF 11
   INSTANCE: PART-1-1                                                                        
 LARGEST INCREMENT OF TEMP.         5.684E+11   AT NODE       1122   DOF 11
   INSTANCE: PART-1-1                                                                        
 LARGEST CORRECTION TO TEMP.        2.554E+11   AT NODE       1298   DOF 11
   INSTANCE: PART-1-1                                                                        
          HEAT FLUX EQUILIBRIUM NOT ACHIEVED WITHIN TOLERANCE.
 
	UNSYMMETRIC NEW DIRECT SPARSE SOLVER RUNNING ON
 	1 HOST x 1 MPI RANK PER HOST x 1 THREAD PER RANK
        NUMBER OF EQUATIONS:  43736
        NUMBER OF RHS:        1
        NUMBER OF FLOPS:      2.157e+09
        SOLVER ELAPSED TIME:  125ms

               CONVERGENCE CHECKS FOR EQUILIBRIUM ITERATION     3


 AVERAGE FORCE                      0.315       TIME AVG. FORCE       7.467E-02
 LARGEST SCALED RESIDUAL FORCE     -7.075E-07   AT NODE       1266   DOF  2
   INSTANCE: PART-1-1                                                                        
  CORRESPONDING RESIDUAL FORCE     -7.075E-07
 LARGEST INCREMENT OF DISP.         4.422E-04   AT NODE      16772   DOF  2
   INSTANCE: PART-1-1                                                                        
 LARGEST CORRECTION TO DISP.        2.966E-09   AT NODE        139   DOF  1
   INSTANCE: PART-1-1                                                                        
          THE FORCE     EQUILIBRIUM EQUATIONS HAVE CONVERGED

 AVERAGE HEAT FLUX                  8.049E+10   TIME AVG. HEAT FLUX   4.991E+11
 LARGEST RESIDUAL HEAT FLUX         8.167E+08   AT NODE       1265   DOF 11
   INSTANCE: PART-1-1                                                                        
 LARGEST INCREMENT OF TEMP.         5.211E+11   AT NODE       1114   DOF 11
   INSTANCE: PART-1-1                                                                        
 LARGEST CORRECTION TO TEMP.       -1.345E+11   AT NODE       1122   DOF 11
   INSTANCE: PART-1-1                                                                        
          TEMP.    CORRECTION TOO LARGE COMPARED TO TEMP.    INCREMENT
 
	UNSYMMETRIC NEW DIRECT SPARSE SOLVER RUNNING ON
 	1 HOST x 1 MPI RANK PER HOST x 1 THREAD PER RANK
        NUMBER OF EQUATIONS:  43736
        NUMBER OF RHS:        1
        NUMBER OF FLOPS:      2.157e+09
        SOLVER ELAPSED TIME:  123ms

               CONVERGENCE CHECKS FOR EQUILIBRIUM ITERATION     4


 AVERAGE FORCE                      0.315       TIME AVG. FORCE       7.467E-02
 LARGEST SCALED RESIDUAL FORCE     -3.638E-09   AT NODE       1729   DOF  2
   INSTANCE: PART-1-1                                                                        
  CORRESPONDING RESIDUAL FORCE     -3.638E-09
 LARGEST INCREMENT OF DISP.         4.422E-04   AT NODE      16772   DOF  2
   INSTANCE: PART-1-1                                                                        
 LARGEST CORRECTION TO DISP.        1.680E-11   AT NODE        347   DOF  1
   INSTANCE: PART-1-1                                                                        
          THE FORCE     EQUILIBRIUM EQUATIONS HAVE CONVERGED

 AVERAGE HEAT FLUX                  8.086E+10   TIME AVG. HEAT FLUX   4.991E+11
 LARGEST RESIDUAL HEAT FLUX         3.456E+07   AT NODE      17348   DOF 11
   INSTANCE: PART-1-1                                                                        
 LARGEST INCREMENT OF TEMP.         5.099E+11   AT NODE       1110   DOF 11
   INSTANCE: PART-1-1                                                                        
 LARGEST CORRECTION TO TEMP.        2.711E+10   AT NODE       1110   DOF 11
   INSTANCE: PART-1-1                                                                        
 ESTIMATE OF TEMP.    CORRECTION    1.147E+09
 HEAT FLUX EQUILIB. ACCEPTED BASED ON SMALL RESIDUAL AND ESTIMATED CORRECTION

 MAXIMUM NON-PRESCRIBED INCREMENT IN TEMPERATURE IS   5.099E+11

 ITERATION SUMMARY FOR THE INCREMENT:   4 TOTAL ITERATIONS, OF WHICH
   0 ARE SEVERE DISCONTINUITY ITERATIONS AND  4 ARE EQUILIBRIUM ITERATIONS.

 TIME INCREMENT COMPLETED  1.000E-02,  FRACTION OF STEP COMPLETED  5.020E-02
 STEP TIME COMPLETED       5.020E-02,  TOTAL TIME COMPLETED        5.020E-02


  INCREMENT    16 STARTS. ATTEMPT NUMBER  1, TIME INCREMENT  1.000E-02
 
	UNSYMMETRIC NEW DIRECT SPARSE SOLVER RUNNING ON
 	1 HOST x 1 MPI RANK PER HOST x 1 THREAD PER RANK
        NUMBER OF EQUATIONS:  43736
        NUMBER OF RHS:        1
        NUMBER OF FLOPS:      2.157e+09
        SOLVER ELAPSED TIME:  125ms

               CONVERGENCE CHECKS FOR EQUILIBRIUM ITERATION     1


 AVERAGE FORCE                      0.378       TIME AVG. FORCE       9.364E-02
 LARGEST SCALED RESIDUAL FORCE      1.791E-03   AT NODE       1876   DOF  2
   INSTANCE: PART-1-1                                                                        
  CORRESPONDING RESIDUAL FORCE      1.791E-03
 LARGEST INCREMENT OF DISP.         4.422E-04   AT NODE      16772   DOF  2
   INSTANCE: PART-1-1                                                                        
 LARGEST CORRECTION TO DISP.        5.497E-07   AT NODE        639   DOF  1
   INSTANCE: PART-1-1                                                                        
          FORCE     EQUILIBRIUM NOT ACHIEVED WITHIN TOLERANCE.

 AVERAGE HEAT FLUX                  5.154E+10   TIME AVG. HEAT FLUX   4.712E+11
 LARGEST RESIDUAL HEAT FLUX        -1.488E+11   AT NODE      17348   DOF 11
   INSTANCE: PART-1-1                                                                        
 LARGEST INCREMENT OF TEMP.         3.372E+11   AT NODE       1121   DOF 11
   INSTANCE: PART-1-1                                                                        
 LARGEST CORRECTION TO TEMP.       -1.796E+11   AT NODE       1110   DOF 11
   INSTANCE: PART-1-1                                                                        
          HEAT FLUX EQUILIBRIUM NOT ACHIEVED WITHIN TOLERANCE.
 
	UNSYMMETRIC NEW DIRECT SPARSE SOLVER RUNNING ON
 	1 HOST x 1 MPI RANK PER HOST x 1 THREAD PER RANK
        NUMBER OF EQUATIONS:  43736
        NUMBER OF RHS:        1
        NUMBER OF FLOPS:      2.157e+09
        SOLVER ELAPSED TIME:  126ms

               CONVERGENCE CHECKS FOR EQUILIBRIUM ITERATION     2


 AVERAGE FORCE                      0.378       TIME AVG. FORCE       9.364E-02
 LARGEST SCALED RESIDUAL FORCE     -3.816E-05   AT NODE        466   DOF  1
   INSTANCE: PART-1-1                                                                        
  CORRESPONDING RESIDUAL FORCE     -3.816E-05
 LARGEST INCREMENT OF DISP.         4.422E-04   AT NODE      16772   DOF  2
   INSTANCE: PART-1-1                                                                        
 LARGEST CORRECTION TO DISP.        3.933E-08   AT NODE        352   DOF  1
   INSTANCE: PART-1-1                                                                        
          THE FORCE     EQUILIBRIUM EQUATIONS HAVE CONVERGED

 AVERAGE HEAT FLUX                  5.309E+10   TIME AVG. HEAT FLUX   4.713E+11
 LARGEST RESIDUAL HEAT FLUX         7.389E+09   AT NODE      17348   DOF 11
   INSTANCE: PART-1-1                                                                        
 LARGEST INCREMENT OF TEMP.         6.422E+11   AT NODE       1110   DOF 11
   INSTANCE: PART-1-1                                                                        
 LARGEST CORRECTION TO TEMP.        3.120E+11   AT NODE       1110   DOF 11
   INSTANCE: PART-1-1                                                                        
          HEAT FLUX EQUILIBRIUM NOT ACHIEVED WITHIN TOLERANCE.
 
	UNSYMMETRIC NEW DIRECT SPARSE SOLVER RUNNING ON
 	1 HOST x 1 MPI RANK PER HOST x 1 THREAD PER RANK
        NUMBER OF EQUATIONS:  43736
        NUMBER OF RHS:        1
[...]
   INSTANCE: PART-1-1                                                                        
          THE FORCE     EQUILIBRIUM EQUATIONS HAVE CONVERGED

 AVERAGE HEAT FLUX                  4.869E+10   TIME AVG. HEAT FLUX   9.785E+10
 LARGEST RESIDUAL HEAT FLUX         3.382E+09   AT NODE      17305   DOF 11
   INSTANCE: PART-1-1                                                                        
 LARGEST INCREMENT OF TEMP.         1.804E+12   AT NODE       1176   DOF 11
   INSTANCE: PART-1-1                                                                        
 LARGEST CORRECTION TO TEMP.        1.469E+12   AT NODE       1176   DOF 11
   INSTANCE: PART-1-1                                                                        
          HEAT FLUX EQUILIBRIUM NOT ACHIEVED WITHIN TOLERANCE.
 
	UNSYMMETRIC NEW DIRECT SPARSE SOLVER RUNNING ON
 	1 HOST x 1 MPI RANK PER HOST x 1 THREAD PER RANK
        NUMBER OF EQUATIONS:  43736
        NUMBER OF RHS:        1
        NUMBER OF FLOPS:      2.157e+09
        SOLVER ELAPSED TIME:  125ms

               CONVERGENCE CHECKS FOR EQUILIBRIUM ITERATION     3


 AVERAGE FORCE                       6.31       TIME AVG. FORCE        2.87    
 LARGEST SCALED RESIDUAL FORCE     -1.373E-07   AT NODE        372   DOF  1
   INSTANCE: PART-1-1                                                                        
  CORRESPONDING RESIDUAL FORCE     -1.373E-07
 LARGEST INCREMENT OF DISP.         4.422E-04   AT NODE      16772   DOF  2
   INSTANCE: PART-1-1                                                                        
 LARGEST CORRECTION TO DISP.        1.398E-09   AT NODE         10   DOF  1
   INSTANCE: PART-1-1                                                                        
          THE FORCE     EQUILIBRIUM EQUATIONS HAVE CONVERGED

 AVERAGE HEAT FLUX                  4.846E+10   TIME AVG. HEAT FLUX   9.785E+10
 LARGEST RESIDUAL HEAT FLUX         3.296E+08   AT NODE      17305   DOF 11
   INSTANCE: PART-1-1                                                                        
 LARGEST INCREMENT OF TEMP.         6.942E+11   AT NODE       2769   DOF 11
   INSTANCE: PART-1-1                                                                        
 LARGEST CORRECTION TO TEMP.       -1.505E+12   AT NODE       1429   DOF 11
   INSTANCE: PART-1-1                                                                        
          TEMP.    CORRECTION TOO LARGE COMPARED TO TEMP.    INCREMENT
 
	UNSYMMETRIC NEW DIRECT SPARSE SOLVER RUNNING ON
 	1 HOST x 1 MPI RANK PER HOST x 1 THREAD PER RANK
        NUMBER OF EQUATIONS:  43736
        NUMBER OF RHS:        1
        NUMBER OF FLOPS:      2.157e+09
        SOLVER ELAPSED TIME:  125ms

               CONVERGENCE CHECKS FOR EQUILIBRIUM ITERATION     4


 AVERAGE FORCE                       6.31       TIME AVG. FORCE        2.87    
 LARGEST SCALED RESIDUAL FORCE     -5.619E-09   AT NODE        811   DOF  1
   INSTANCE: PART-1-1                                                                        
  CORRESPONDING RESIDUAL FORCE     -5.619E-09
 LARGEST INCREMENT OF DISP.         4.422E-04   AT NODE      16772   DOF  2
   INSTANCE: PART-1-1                                                                        
 LARGEST CORRECTION TO DISP.       -3.573E-11   AT NODE        372   DOF  1
   INSTANCE: PART-1-1                                                                        
          THE FORCE     EQUILIBRIUM EQUATIONS HAVE CONVERGED

 AVERAGE HEAT FLUX                  4.845E+10   TIME AVG. HEAT FLUX   9.785E+10
 LARGEST RESIDUAL HEAT FLUX         3.217E+07   AT NODE      17305   DOF 11
   INSTANCE: PART-1-1                                                                        
 LARGEST INCREMENT OF TEMP.         6.926E+11   AT NODE       2769   DOF 11
   INSTANCE: PART-1-1                                                                        
 LARGEST CORRECTION TO TEMP.        4.896E+09   AT NODE       2743   DOF 11
   INSTANCE: PART-1-1                                                                        
          THE HEAT FLUX EQUILIBRIUM EQUATIONS HAVE CONVERGED

 MAXIMUM NON-PRESCRIBED INCREMENT IN TEMPERATURE IS   6.926E+11

 ITERATION SUMMARY FOR THE INCREMENT:   4 TOTAL ITERATIONS, OF WHICH
   0 ARE SEVERE DISCONTINUITY ITERATIONS AND  4 ARE EQUILIBRIUM ITERATIONS.

 TIME INCREMENT COMPLETED  1.000E-02,  FRACTION OF STEP COMPLETED  0.980    
 STEP TIME COMPLETED       0.980    ,  TOTAL TIME COMPLETED        0.980    


  INCREMENT   109 STARTS. ATTEMPT NUMBER  1, TIME INCREMENT  1.000E-02
 
	UNSYMMETRIC NEW DIRECT SPARSE SOLVER RUNNING ON
 	1 HOST x 1 MPI RANK PER HOST x 1 THREAD PER RANK
        NUMBER OF EQUATIONS:  43736
        NUMBER OF RHS:        1
        NUMBER OF FLOPS:      2.157e+09
        SOLVER ELAPSED TIME:  124ms

               CONVERGENCE CHECKS FOR EQUILIBRIUM ITERATION     1


 AVERAGE FORCE                       6.37       TIME AVG. FORCE        2.90    
 LARGEST SCALED RESIDUAL FORCE      3.077E-03   AT NODE      18635   DOF  2
   INSTANCE: PART-1-1                                                                        
  CORRESPONDING RESIDUAL FORCE      3.077E-03
 LARGEST INCREMENT OF DISP.         4.422E-04   AT NODE      16772   DOF  2
   INSTANCE: PART-1-1                                                                        
 LARGEST CORRECTION TO DISP.        6.599E-07   AT NODE       1527   DOF  1
   INSTANCE: PART-1-1                                                                        
          THE FORCE     EQUILIBRIUM EQUATIONS HAVE CONVERGED

 AVERAGE HEAT FLUX                  4.898E+10   TIME AVG. HEAT FLUX   9.740E+10
 LARGEST RESIDUAL HEAT FLUX         3.502E+10   AT NODE      17305   DOF 11
   INSTANCE: PART-1-1                                                                        
 LARGEST INCREMENT OF TEMP.         4.995E+11   AT NODE       2769   DOF 11
   INSTANCE: PART-1-1                                                                        
 LARGEST CORRECTION TO TEMP.        3.534E+11   AT NODE       3131   DOF 11
   INSTANCE: PART-1-1                                                                        
          HEAT FLUX EQUILIBRIUM NOT ACHIEVED WITHIN TOLERANCE.
 
	UNSYMMETRIC NEW DIRECT SPARSE SOLVER RUNNING ON
 	1 HOST x 1 MPI RANK PER HOST x 1 THREAD PER RANK
        NUMBER OF EQUATIONS:  43736
        NUMBER OF RHS:        1
        NUMBER OF FLOPS:      2.157e+09
        SOLVER ELAPSED TIME:  126ms

               CONVERGENCE CHECKS FOR EQUILIBRIUM ITERATION     2


 AVERAGE FORCE                       6.37       TIME AVG. FORCE        2.90    
 LARGEST SCALED RESIDUAL FORCE     -1.176E-05   AT NODE      18635   DOF  2
   INSTANCE: PART-1-1                                                                        
  CORRESPONDING RESIDUAL FORCE     -1.176E-05
 LARGEST INCREMENT OF DISP.         4.422E-04   AT NODE      16772   DOF  2
   INSTANCE: PART-1-1                                                                        
 LARGEST CORRECTION TO DISP.       -5.216E-08   AT NODE       1061   DOF  1
   INSTANCE: PART-1-1                                                                        
          THE FORCE     EQUILIBRIUM EQUATIONS HAVE CONVERGED

 AVERAGE HEAT FLUX                  4.914E+10   TIME AVG. HEAT FLUX   9.741E+10
 LARGEST RESIDUAL HEAT FLUX         3.429E+09   AT NODE      17305   DOF 11
   INSTANCE: PART-1-1                                                                        
 LARGEST INCREMENT OF TEMP.         1.807E+12   AT NODE       1176   DOF 11
   INSTANCE: PART-1-1                                                                        
 LARGEST CORRECTION TO TEMP.        1.474E+12   AT NODE       1176   DOF 11
   INSTANCE: PART-1-1                                                                        
          HEAT FLUX EQUILIBRIUM NOT ACHIEVED WITHIN TOLERANCE.
 
	UNSYMMETRIC NEW DIRECT SPARSE SOLVER RUNNING ON
 	1 HOST x 1 MPI RANK PER HOST x 1 THREAD PER RANK
        NUMBER OF EQUATIONS:  43736
        NUMBER OF RHS:        1
        NUMBER OF FLOPS:      2.157e+09
        SOLVER ELAPSED TIME:  125ms

               CONVERGENCE CHECKS FOR EQUILIBRIUM ITERATION     3


 AVERAGE FORCE                       6.37       TIME AVG. FORCE        2.90    
 LARGEST SCALED RESIDUAL FORCE     -1.433E-07   AT NODE        372   DOF  1
   INSTANCE: PART-1-1                                                                        
  CORRESPONDING RESIDUAL FORCE     -1.433E-07
 LARGEST INCREMENT OF DISP.         4.422E-04   AT NODE      16772   DOF  2
   INSTANCE: PART-1-1                                                                        
 LARGEST CORRECTION TO DISP.        1.450E-09   AT NODE         10   DOF  1
   INSTANCE: PART-1-1                                                                        
          THE FORCE     EQUILIBRIUM EQUATIONS HAVE CONVERGED

 AVERAGE HEAT FLUX                  4.885E+10   TIME AVG. HEAT FLUX   9.740E+10
 LARGEST RESIDUAL HEAT FLUX         3.369E+08   AT NODE      17305   DOF 11
   INSTANCE: PART-1-1                                                                        
 LARGEST INCREMENT OF TEMP.         7.006E+11   AT NODE       2874   DOF 11
   INSTANCE: PART-1-1                                                                        
 LARGEST CORRECTION TO TEMP.       -1.504E+12   AT NODE       1429   DOF 11
   INSTANCE: PART-1-1                                                                        
          TEMP.    CORRECTION TOO LARGE COMPARED TO TEMP.    INCREMENT
 
	UNSYMMETRIC NEW DIRECT SPARSE SOLVER RUNNING ON
 	1 HOST x 1 MPI RANK PER HOST x 1 THREAD PER RANK
        NUMBER OF EQUATIONS:  43736
        NUMBER OF RHS:        1
        NUMBER OF FLOPS:      2.157e+09
        SOLVER ELAPSED TIME:  124ms

               CONVERGENCE CHECKS FOR EQUILIBRIUM ITERATION     4


 AVERAGE FORCE                       6.37       TIME AVG. FORCE        2.90    
 LARGEST SCALED RESIDUAL FORCE     -5.886E-09   AT NODE        811   DOF  1
   INSTANCE: PART-1-1                                                                        
  CORRESPONDING RESIDUAL FORCE     -5.886E-09
 LARGEST INCREMENT OF DISP.         4.422E-04   AT NODE      16772   DOF  2
   INSTANCE: PART-1-1                                                                        
 LARGEST CORRECTION TO DISP.       -3.630E-11   AT NODE        372   DOF  1
   INSTANCE: PART-1-1                                                                        
          THE FORCE     EQUILIBRIUM EQUATIONS HAVE CONVERGED

 AVERAGE HEAT FLUX                  4.885E+10   TIME AVG. HEAT FLUX   9.740E+10
 LARGEST RESIDUAL HEAT FLUX         3.318E+07   AT NODE      17305   DOF 11
   INSTANCE: PART-1-1                                                                        
 LARGEST INCREMENT OF TEMP.         7.004E+11   AT NODE       2874   DOF 11
   INSTANCE: PART-1-1                                                                        
 LARGEST CORRECTION TO TEMP.        4.935E+09   AT NODE       2743   DOF 11
   INSTANCE: PART-1-1                                                                        
          THE HEAT FLUX EQUILIBRIUM EQUATIONS HAVE CONVERGED

 MAXIMUM NON-PRESCRIBED INCREMENT IN TEMPERATURE IS   7.004E+11

 ITERATION SUMMARY FOR THE INCREMENT:   4 TOTAL ITERATIONS, OF WHICH
   0 ARE SEVERE DISCONTINUITY ITERATIONS AND  4 ARE EQUILIBRIUM ITERATIONS.

 TIME INCREMENT COMPLETED  1.000E-02,  FRACTION OF STEP COMPLETED  0.990    
 STEP TIME COMPLETED       0.990    ,  TOTAL TIME COMPLETED        0.990    


  INCREMENT   110 STARTS. ATTEMPT NUMBER  1, TIME INCREMENT  9.797E-03
 
	UNSYMMETRIC NEW DIRECT SPARSE SOLVER RUNNING ON
 	1 HOST x 1 MPI RANK PER HOST x 1 THREAD PER RANK
        NUMBER OF EQUATIONS:  43736
        NUMBER OF RHS:        1
        NUMBER OF FLOPS:      2.157e+09
        SOLVER ELAPSED TIME:  123ms

               CONVERGENCE CHECKS FOR EQUILIBRIUM ITERATION     1


 AVERAGE FORCE                       6.44       TIME AVG. FORCE        2.93    
 LARGEST SCALED RESIDUAL FORCE      2.740E-02   AT NODE       9932   DOF  2
   INSTANCE: PART-1-1                                                                        
  CORRESPONDING RESIDUAL FORCE      2.740E-02
 LARGEST INCREMENT OF DISP.         4.333E-04   AT NODE      16772   DOF  2
   INSTANCE: PART-1-1                                                                        
 LARGEST CORRECTION TO DISP.        5.936E-07   AT NODE       1466   DOF  1
   INSTANCE: PART-1-1                                                                        
          FORCE     EQUILIBRIUM NOT ACHIEVED WITHIN TOLERANCE.

 AVERAGE HEAT FLUX                  4.932E+10   TIME AVG. HEAT FLUX   9.697E+10
 LARGEST RESIDUAL HEAT FLUX         3.358E+10   AT NODE      17305   DOF 11
   INSTANCE: PART-1-1                                                                        
 LARGEST INCREMENT OF TEMP.         4.889E+11   AT NODE       2769   DOF 11
   INSTANCE: PART-1-1                                                                        
 LARGEST CORRECTION TO TEMP.        3.479E+11   AT NODE       2766   DOF 11
   INSTANCE: PART-1-1                                                                        
          HEAT FLUX EQUILIBRIUM NOT ACHIEVED WITHIN TOLERANCE.
 
	UNSYMMETRIC NEW DIRECT SPARSE SOLVER RUNNING ON
 	1 HOST x 1 MPI RANK PER HOST x 1 THREAD PER RANK
        NUMBER OF EQUATIONS:  43736
        NUMBER OF RHS:        1
        NUMBER OF FLOPS:      2.157e+09
        SOLVER ELAPSED TIME:  125ms

               CONVERGENCE CHECKS FOR EQUILIBRIUM ITERATION     2


 AVERAGE FORCE                       6.44       TIME AVG. FORCE        2.93    
 LARGEST SCALED RESIDUAL FORCE      2.179E-05   AT NODE       8680   DOF  2
   INSTANCE: PART-1-1                                                                        
  CORRESPONDING RESIDUAL FORCE      2.179E-05
 LARGEST INCREMENT OF DISP.         4.333E-04   AT NODE      16772   DOF  2
   INSTANCE: PART-1-1                                                                        
 LARGEST CORRECTION TO DISP.       -8.857E-08   AT NODE       9786   DOF  1
   INSTANCE: PART-1-1                                                                        
          THE FORCE     EQUILIBRIUM EQUATIONS HAVE CONVERGED

 AVERAGE HEAT FLUX                  4.952E+10   TIME AVG. HEAT FLUX   9.697E+10
 LARGEST RESIDUAL HEAT FLUX         3.240E+09   AT NODE      17305   DOF 11
   INSTANCE: PART-1-1                                                                        
 LARGEST INCREMENT OF TEMP.         1.751E+12   AT NODE       1176   DOF 11
   INSTANCE: PART-1-1                                                                        
 LARGEST CORRECTION TO TEMP.        1.426E+12   AT NODE       1176   DOF 11
   INSTANCE: PART-1-1                                                                        
          HEAT FLUX EQUILIBRIUM NOT ACHIEVED WITHIN TOLERANCE.
 
	UNSYMMETRIC NEW DIRECT SPARSE SOLVER RUNNING ON
 	1 HOST x 1 MPI RANK PER HOST x 1 THREAD PER RANK
        NUMBER OF EQUATIONS:  43736
        NUMBER OF RHS:        1
        NUMBER OF FLOPS:      2.157e+09
        SOLVER ELAPSED TIME:  125ms

               CONVERGENCE CHECKS FOR EQUILIBRIUM ITERATION     3


 AVERAGE FORCE                       6.44       TIME AVG. FORCE        2.93    
 LARGEST SCALED RESIDUAL FORCE     -1.394E-07   AT NODE        372   DOF  1
   INSTANCE: PART-1-1                                                                        
  CORRESPONDING RESIDUAL FORCE     -1.394E-07
 LARGEST INCREMENT OF DISP.         4.333E-04   AT NODE      16772   DOF  2
   INSTANCE: PART-1-1                                                                        
 LARGEST CORRECTION TO DISP.        1.417E-09   AT NODE         10   DOF  1
   INSTANCE: PART-1-1                                                                        
          THE FORCE     EQUILIBRIUM EQUATIONS HAVE CONVERGED

 AVERAGE HEAT FLUX                  4.922E+10   TIME AVG. HEAT FLUX   9.696E+10
 LARGEST RESIDUAL HEAT FLUX         3.140E+08   AT NODE      17305   DOF 11
   INSTANCE: PART-1-1                                                                        
 LARGEST INCREMENT OF TEMP.         6.936E+11   AT NODE       2874   DOF 11
   INSTANCE: PART-1-1                                                                        
 LARGEST CORRECTION TO TEMP.       -1.457E+12   AT NODE       1176   DOF 11
   INSTANCE: PART-1-1                                                                        
          TEMP.    CORRECTION TOO LARGE COMPARED TO TEMP.    INCREMENT
 
	UNSYMMETRIC NEW DIRECT SPARSE SOLVER RUNNING ON
 	1 HOST x 1 MPI RANK PER HOST x 1 THREAD PER RANK
        NUMBER OF EQUATIONS:  43736
        NUMBER OF RHS:        1
        NUMBER OF FLOPS:      2.157e+09
        SOLVER ELAPSED TIME:  127ms

               CONVERGENCE CHECKS FOR EQUILIBRIUM ITERATION     4


 AVERAGE FORCE                       6.44       TIME AVG. FORCE        2.93    
 LARGEST SCALED RESIDUAL FORCE     -5.705E-09   AT NODE        811   DOF  1
   INSTANCE: PART-1-1                                                                        
  CORRESPONDING RESIDUAL FORCE     -5.705E-09
 LARGEST INCREMENT OF DISP.         4.333E-04   AT NODE      16772   DOF  2
   INSTANCE: PART-1-1                                                                        
 LARGEST CORRECTION TO DISP.       -3.493E-11   AT NODE        140   DOF  1
   INSTANCE: PART-1-1                                                                        
          THE FORCE     EQUILIBRIUM EQUATIONS HAVE CONVERGED

 AVERAGE HEAT FLUX                  4.921E+10   TIME AVG. HEAT FLUX   9.696E+10
 LARGEST RESIDUAL HEAT FLUX         3.052E+07   AT NODE      17305   DOF 11
   INSTANCE: PART-1-1                                                                        
 LARGEST INCREMENT OF TEMP.         6.935E+11   AT NODE       2874   DOF 11
   INSTANCE: PART-1-1                                                                        
 LARGEST CORRECTION TO TEMP.        4.804E+09   AT NODE       2743   DOF 11
   INSTANCE: PART-1-1                                                                        
          THE HEAT FLUX EQUILIBRIUM EQUATIONS HAVE CONVERGED

 MAXIMUM NON-PRESCRIBED INCREMENT IN TEMPERATURE IS   6.935E+11

 ITERATION SUMMARY FOR THE INCREMENT:   4 TOTAL ITERATIONS, OF WHICH
   0 ARE SEVERE DISCONTINUITY ITERATIONS AND  4 ARE EQUILIBRIUM ITERATIONS.

 TIME INCREMENT COMPLETED  9.797E-03,  FRACTION OF STEP COMPLETED   1.00    
 STEP TIME COMPLETED        1.00    ,  TOTAL TIME COMPLETED         1.00    


          THE ANALYSIS HAS BEEN COMPLETED



     ANALYSIS SUMMARY:
     TOTAL OF        110  INCREMENTS
                       0  CUTBACKS IN AUTOMATIC INCREMENTATION
                     417  ITERATIONS INCLUDING CONTACT ITERATIONS IF PRESENT
                     417  PASSES THROUGH THE EQUATION SOLVER OF WHICH 
                     417  INVOLVE MATRIX DECOMPOSITION, INCLUDING
                       0  DECOMPOSITION(S) OF THE MASS MATRIX
                       1  REORDERING OF EQUATIONS TO MINIMIZE WAVEFRONT
                       0  ADDITIONAL RESIDUAL EVALUATIONS FOR LINE SEARCHES
                       0  ADDITIONAL OPERATOR EVALUATIONS FOR LINE SEARCHES
                       3  WARNING MESSAGES DURING USER INPUT PROCESSING
                       0  WARNING MESSAGES DURING ANALYSIS
                       0  ANALYSIS WARNINGS ARE NUMERICAL PROBLEM MESSAGES
                       0  ANALYSIS WARNINGS ARE NEGATIVE EIGENVALUE MESSAGES
                       0  ERROR MESSAGES



     JOB TIME SUMMARY
       USER TIME (SEC)      =     3.69E+02
       SYSTEM TIME (SEC)    =     1.25E+02
       TOTAL CPU TIME (SEC) =     4.94E+02
       WALLCLOCK TIME (SEC) =          562
       MEMORY PEAK (GB)     =            3
