 Abaqus/Standard 2024                  DATE 29-May-2025 TIME 14:26:34
 SUMMARY OF JOB INFORMATION:
 STEP  INC ATT SEVERE EQUIL TOTAL  TOTAL      STEP       INC OF       DOF    IF
               DISCON ITERS ITERS  TIME/    TIME/LPF    TIME/LPF    MONITOR RIKS
               ITERS               FREQ
   1     1   1     0     3     3  0.000100   0.000100   0.0001000 
   1     2   1     0     1     1  0.000200   0.000200   0.0001000 
   1     3   1     0     1     1  0.000300   0.000300   0.0001000 
   1     4   1     0     1     1  0.000500   0.000500   0.0002000 
   1     5   1     0     2     2  0.000900   0.000900   0.0004000 
   1     6   1     0     2     2  0.00150    0.00150    0.0006000 
   1     7   1     0     2     2  0.00240    0.00240    0.0009000 
