 Abaqus/Standard 2024                  DATE 31-Dec-2024 TIME 17:17:15
 SUMMARY OF JOB INFORMATION:
 STEP  INC ATT SEVERE EQUIL TOTAL  TOTAL      STEP       INC OF       DOF    IF
               DISCON ITERS ITERS  TIME/    TIME/LPF    TIME/LPF    MONITOR RIKS
               ITERS               FREQ
   1     1   1     0     2     2  0.000100   0.000100   0.0001000 
   1     2   1     0     1     1  0.000200   0.000200   0.0001000 
   1     3   1     0     1     1  0.000350   0.000350   0.0001500 
   1     4   1     0     1     1  0.000575   0.000575   0.0002250 
   1     5   1     0     1     1  0.000913   0.000913   0.0003375 
   1     6   1     0     1     1  0.00142    0.00142    0.0005062 
   1     7   1     0     1     1  0.00218    0.00218    0.0007594 
   1     8   1     0     1     1  0.00332    0.00332    0.001139  
   1     9   1     0     1     1  0.00503    0.00503    0.001709  
   1    10   1     0     1     1  0.00759    0.00759    0.002563  
   1    11   1     0     1     1  0.0114     0.0114     0.003844  
   1    12   1     0     1     1  0.0172     0.0172     0.005767  
   1    13   1     0     1     1  0.0258     0.0258     0.008650  
   1    14   1     0     1     1  0.0358     0.0358     0.01000   
   1    15   1     0     1     1  0.0458     0.0458     0.01000   
   1    16   1     0     1     1  0.0558     0.0558     0.01000   
   1    17   1     0     1     1  0.0658     0.0658     0.01000   
   1    18   1     0     1     1  0.0758     0.0758     0.01000   
   1    19   1     0     1     1  0.0858     0.0858     0.01000   
   1    20   1     0     1     1  0.0958     0.0958     0.01000   
   1    21   1     0     1     1  0.106      0.106      0.01000   
   1    22   1     0     1     1  0.116      0.116      0.01000   
   1    23   1     0     1     1  0.126      0.126      0.01000   
   1    24   1     0     1     1  0.136      0.136      0.01000   
   1    25   1     0     1     1  0.146      0.146      0.01000   
   1    26   1     0     1     1  0.156      0.156      0.01000   
   1    27   1     0     1     1  0.166      0.166      0.01000   
   1    28   1     0     1     1  0.176      0.176      0.01000   
   1    29   1     0     1     1  0.186      0.186      0.01000   
   1    30   1     0     1     1  0.196      0.196      0.01000   
   1    31   1     0     1     1  0.206      0.206      0.01000   
   1    32   1     0     1     1  0.216      0.216      0.01000   
   1    33   1     0     1     1  0.226      0.226      0.01000   
   1    34   1     0     1     1  0.236      0.236      0.01000   
   1    35   1     0     1     1  0.246      0.246      0.01000   
   1    36   1     0     1     1  0.256      0.256      0.01000   
   1    37   1     0     1     1  0.266      0.266      0.01000   
   1    38   1     0     1     1  0.276      0.276      0.01000   
   1    39   1     0     1     1  0.286      0.286      0.01000   
   1    40   1     0     1     1  0.296      0.296      0.01000   
   1    41   1     0     1     1  0.306      0.306      0.01000   
   1    42   1     0     1     1  0.316      0.316      0.01000   
   1    43   1     0     1     1  0.326      0.326      0.01000   
   1    44   1     0     1     1  0.336      0.336      0.01000   
   1    45   1     0     1     1  0.346      0.346      0.01000   
   1    46   1     0     1     1  0.356      0.356      0.01000   
   1    47   1     0     1     1  0.366      0.366      0.01000   
   1    48   1     0     1     1  0.376      0.376      0.01000   
   1    49   1     0     1     1  0.386      0.386      0.01000   
   1    50   1     0     1     1  0.396      0.396      0.01000   
   1    51   1     0     1     1  0.406      0.406      0.01000   
   1    52   1     0     1     1  0.416      0.416      0.01000   
   1    53   1     0     1     1  0.426      0.426      0.01000   
   1    54   1     0     1     1  0.436      0.436      0.01000   
   1    55   1     0     1     1  0.446      0.446      0.01000   
   1    56   1     0     1     1  0.456      0.456      0.01000   
   1    57   1     0     1     1  0.466      0.466      0.01000   
   1    58   1     0     1     1  0.476      0.476      0.01000   
   1    59   1     0     1     1  0.486      0.486      0.01000   
   1    60   1     0     1     1  0.496      0.496      0.01000   
   1    61   1     0     1     1  0.506      0.506      0.01000   
   1    62   1     0     1     1  0.516      0.516      0.01000   
   1    63   1     0     1     1  0.526      0.526      0.01000   
   1    64   1     0     1     1  0.536      0.536      0.01000   
   1    65   1     0     1     1  0.546      0.546      0.01000   
   1    66   1     0     1     1  0.556      0.556      0.01000   
   1    67   1     0     1     1  0.566      0.566      0.01000   
   1    68   1     0     1     1  0.576      0.576      0.01000   
   1    69   1     0     1     1  0.586      0.586      0.01000   
   1    70   1     0     1     1  0.596      0.596      0.01000   
   1    71   1     0     1     1  0.606      0.606      0.01000   
   1    72   1     0     1     1  0.616      0.616      0.01000   
   1    73   1     0     1     1  0.626      0.626      0.01000   
   1    74   1     0     1     1  0.636      0.636      0.01000   
   1    75   1     0     1     1  0.646      0.646      0.01000   
   1    76   1     0     1     1  0.656      0.656      0.01000   
   1    77   1     0     1     1  0.666      0.666      0.01000   
   1    78   1     0     1     1  0.676      0.676      0.01000   
   1    79   1     0     1     1  0.686      0.686      0.01000   
   1    80   1     0     1     1  0.696      0.696      0.01000   
   1    81   1     0     1     1  0.706      0.706      0.01000   
   1    82   1     0     1     1  0.716      0.716      0.01000   
   1    83   1     0     1     1  0.726      0.726      0.01000   
   1    84   1     0     1     1  0.736      0.736      0.01000   
   1    85   1     0     1     1  0.746      0.746      0.01000   
   1    86   1     0     1     1  0.756      0.756      0.01000   
   1    87   1     0     1     1  0.766      0.766      0.01000   
   1    88   1     0     1     1  0.776      0.776      0.01000   
   1    89   1     0     1     1  0.786      0.786      0.01000   
   1    90   1     0     1     1  0.796      0.796      0.01000   
   1    91   1     0     1     1  0.806      0.806      0.01000   
   1    92   1     0     1     1  0.816      0.816      0.01000   
   1    93   1     0     1     1  0.826      0.826      0.01000   
   1    94   1     0     1     1  0.836      0.836      0.01000   
   1    95   1     0     1     1  0.846      0.846      0.01000   
   1    96   1     0     1     1  0.856      0.856      0.01000   
   1    97   1     0     1     1  0.866      0.866      0.01000   
   1    98   1     0     1     1  0.876      0.876      0.01000   
   1    99   1     0     1     1  0.886      0.886      0.01000   
   1   100   1     0     1     1  0.896      0.896      0.01000   
   1   101   1     0     1     1  0.906      0.906      0.01000   
   1   102   1     0     1     1  0.916      0.916      0.01000   
   1   103   1     0     1     1  0.926      0.926      0.01000   
   1   104   1     0     1     1  0.936      0.936      0.01000   
   1   105   1     0     1     1  0.946      0.946      0.01000   
   1   106   1     0     1     1  0.956      0.956      0.01000   
   1   107   1     0     1     1  0.966      0.966      0.01000   
   1   108   1     0     1     1  0.976      0.976      0.01000   
   1   109   1     0     1     1  0.986      0.986      0.01000   
   1   110   1     0     1     1  0.996      0.996      0.01000   
   1   111   1     0     1     1  1.00       1.00       0.004151  
                          
 THE ANALYSIS HAS COMPLETED SUCCESSFULLY
