 Abaqus/Standard 2024                  DATE 01-Jan-2025 TIME 16:10:25
 SUMMARY OF JOB INFORMATION:
 STEP  INC ATT SEVERE EQUIL TOTAL  TOTAL      STEP       INC OF       DOF    IF
               DISCON ITERS ITERS  TIME/    TIME/LPF    TIME/LPF    MONITOR RIKS
               ITERS               FREQ
   1     1   1     0     2     2  0.000100   0.000100   0.0001000 
   1     2   1     0     1     1  0.000200   0.000200   0.0001000 
   1     3   1     0     1     1  0.000300   0.000300   0.0001000 
   1     4   1     0     1     1  0.000500   0.000500   0.0002000 
   1     5   1     0     1     1  0.000900   0.000900   0.0004000 
   1     6   1     0     1     1  0.00170    0.00170    0.0008000 
   1     7   1     0     1     1  0.00330    0.00330    0.001600  
   1     8   1     0     1     1  0.00650    0.00650    0.003200  
   1     9   1     0     1     1  0.0129     0.0129     0.006400  
   1    10   1     0     1     1  0.0229     0.0229     0.01000   
   1    11   1     0     1     1  0.0329     0.0329     0.01000   
   1    12   1     0     1     1  0.0429     0.0429     0.01000   
   1    13   1     0     1     1  0.0529     0.0529     0.01000   
   1    14   1     0     1     1  0.0629     0.0629     0.01000   
   1    15   1     0     1     1  0.0729     0.0729     0.01000   
   1    16   1     0     1     1  0.0829     0.0829     0.01000   
   1    17   1     0     1     1  0.0929     0.0929     0.01000   
   1    18   1     0     1     1  0.103      0.103      0.01000   
   1    19   1     0     1     1  0.113      0.113      0.01000   
   1    20   1     0     1     1  0.123      0.123      0.01000   
   1    21   1     0     1     1  0.133      0.133      0.01000   
   1    22   1     0     1     1  0.143      0.143      0.01000   
   1    23   1     0     1     1  0.153      0.153      0.01000   
   1    24   1     0     1     1  0.163      0.163      0.01000   
   1    25   1     0     1     1  0.173      0.173      0.01000   
   1    26   1     0     1     1  0.183      0.183      0.01000   
   1    27   1     0     1     1  0.193      0.193      0.01000   
   1    28   1     0     1     1  0.203      0.203      0.01000   
   1    29   1     0     1     1  0.213      0.213      0.01000   
   1    30   1     0     1     1  0.223      0.223      0.01000   
   1    31   1     0     1     1  0.233      0.233      0.01000   
   1    32   1     0     1     1  0.243      0.243      0.01000   
   1    33   1     0     1     1  0.253      0.253      0.01000   
   1    34   1     0     1     1  0.263      0.263      0.01000   
   1    35   1     0     1     1  0.273      0.273      0.01000   
   1    36   1     0     1     1  0.283      0.283      0.01000   
   1    37   1     0     1     1  0.293      0.293      0.01000   
   1    38   1     0     1     1  0.303      0.303      0.01000   
   1    39   1     0     1     1  0.313      0.313      0.01000   
   1    40   1     0     1     1  0.323      0.323      0.01000   
   1    41   1     0     1     1  0.333      0.333      0.01000   
   1    42   1     0     1     1  0.343      0.343      0.01000   
   1    43   1     0     1     1  0.353      0.353      0.01000   
   1    44   1     0     1     1  0.363      0.363      0.01000   
   1    45   1     0     1     1  0.373      0.373      0.01000   
   1    46   1     0     1     1  0.383      0.383      0.01000   
   1    47   1     0     1     1  0.393      0.393      0.01000   
   1    48   1     0     1     1  0.403      0.403      0.01000   
   1    49   1     0     1     1  0.413      0.413      0.01000   
   1    50   1     0     1     1  0.423      0.423      0.01000   
   1    51   1     0     1     1  0.433      0.433      0.01000   
   1    52   1     0     1     1  0.443      0.443      0.01000   
   1    53   1     0     1     1  0.453      0.453      0.01000   
   1    54   1U    0     4     4  0.453      0.453      0.01000   
   1    54   2     0     1     1  0.455      0.455      0.002500  
   1    55   1     0     1     1  0.460      0.460      0.005000  
   1    56   1     0     1     1  0.470      0.470      0.01000   
   1    57   1     0     1     1  0.480      0.480      0.01000   
   1    58   1     0     1     1  0.490      0.490      0.01000   
   1    59   1     0     1     1  0.500      0.500      0.01000   
   1    60   1     0     1     1  0.510      0.510      0.01000   
   1    61   1     0     1     1  0.520      0.520      0.01000   
   1    62   1     0     1     1  0.530      0.530      0.01000   
   1    63   1U    0     4     4  0.530      0.530      0.01000   
   1    63   2     0     1     1  0.533      0.533      0.002500  
   1    64   1     0     1     1  0.538      0.538      0.005000  
   1    65   1     0     1     1  0.548      0.548      0.01000   
   1    66   1     0     1     1  0.558      0.558      0.01000   
   1    67   1     0     1     1  0.568      0.568      0.01000   
   1    68   1     0     1     1  0.578      0.578      0.01000   
   1    69   1     0     1     1  0.588      0.588      0.01000   
   1    70   1     0     1     1  0.598      0.598      0.01000   
   1    71   1     0     1     1  0.608      0.608      0.01000   
   1    72   1     0     1     1  0.618      0.618      0.01000   
   1    73   1     0     1     1  0.628      0.628      0.01000   
   1    74   1     0     1     1  0.638      0.638      0.01000   
   1    75   1     0     1     1  0.648      0.648      0.01000   
   1    76   1     0     1     1  0.658      0.658      0.01000   
   1    77   1     0     1     1  0.668      0.668      0.01000   
   1    78   1     0     1     1  0.678      0.678      0.01000   
   1    79   1     0     1     1  0.688      0.688      0.01000   
   1    80   1     0     1     1  0.698      0.698      0.01000   
   1    81   1     0     1     1  0.708      0.708      0.01000   
   1    82   1U    0     4     4  0.708      0.708      0.01000   
   1    82   2     0     1     1  0.710      0.710      0.002500  
   1    83   1     0     1     1  0.715      0.715      0.005000  
   1    84   1U    0     4     4  0.715      0.715      0.01000   
   1    84   2     0     1     1  0.718      0.718      0.002500  
   1    85   1     0     1     1  0.723      0.723      0.005000  
   1    86   1     0     1     1  0.733      0.733      0.01000   
   1    87   1     0     1     1  0.743      0.743      0.01000   
   1    88   1     0     1     1  0.753      0.753      0.01000   
   1    89   1     0     1     1  0.763      0.763      0.01000   
   1    90   1     0     1     1  0.773      0.773      0.01000   
   1    91   1     0     1     1  0.783      0.783      0.01000   
   1    92   1     0     1     1  0.793      0.793      0.01000   
   1    93   1     0     1     1  0.803      0.803      0.01000   
   1    94   1     0     1     1  0.813      0.813      0.01000   
   1    95   1     0     1     1  0.823      0.823      0.01000   
   1    96   1     0     1     1  0.833      0.833      0.01000   
   1    97   1     0     1     1  0.843      0.843      0.01000   
   1    98   1     0     1     1  0.853      0.853      0.01000   
   1    99   1U    0     5     5  0.853      0.853      0.01000   
   1    99   2     0     1     1  0.855      0.855      0.002500  
   1   100   1     0     1     1  0.860      0.860      0.005000  
   1   101   1     0     1     1  0.870      0.870      0.01000   
   1   102   1     0     1     1  0.880      0.880      0.01000   
   1   103   1     0     1     1  0.890      0.890      0.01000   
   1   104   1     0     1     1  0.900      0.900      0.01000   
   1   105   1     0     1     1  0.910      0.910      0.01000   
   1   106   1U    0     1     1  0.910      0.910      0.01000   
   1   106   2     0     2     2  0.910      0.910      1.078e-08 
   1   107   1U    0     1     1  0.910      0.910      1.078e-08 
   1   107   2     0     1     1  0.910      0.910      4.367e-14 
   1   108   1U    0     2     2  0.910      0.910      4.367e-14 
   1   108   2     0     1     1  0.910      0.910      5.059e-20 
   1   109   1     0     1     1  0.910      0.910      5.059e-20 
   1   110   1     0     1     1  0.910      0.910      5.059e-20 
   1   111   1     0     1     1  0.910      0.910      1.012e-19 
   1   112   1     0     1     1  0.910      0.910      2.024e-19 
   1   113   1     0     1     1  0.910      0.910      4.047e-19 
   1   114   1     0     1     1  0.910      0.910      8.095e-19 
   1   115   1     0     1     1  0.910      0.910      1.619e-18 
   1   116   1     0     1     1  0.910      0.910      3.238e-18 
   1   117   1     0     1     1  0.910      0.910      6.476e-18 
   1   118   1     0     1     1  0.910      0.910      1.295e-17 
   1   119   1     0     1     1  0.910      0.910      2.590e-17 
   1   120   1     0     1     1  0.910      0.910      5.181e-17 
   1   121   1     0     1     1  0.910      0.910      1.036e-16 
   1   122   1     0     1     1  0.910      0.910      2.072e-16 
   1   123   1     0     1     1  0.910      0.910      4.145e-16 
   1   124   1     0     1     1  0.910      0.910      8.289e-16 
   1   125   1     0     1     1  0.910      0.910      1.658e-15 
   1   126   1     0     1     1  0.910      0.910      3.316e-15 
   1   127   1     0     1     1  0.910      0.910      6.631e-15 
   1   128   1     0     1     1  0.910      0.910      1.326e-14 
   1   129   1     0     1     1  0.910      0.910      2.653e-14 
   1   130   1     0     1     1  0.910      0.910      5.305e-14 
   1   131   1     0     1     1  0.910      0.910      1.061e-13 
   1   132   1     0     1     1  0.910      0.910      2.122e-13 
   1   133   1     0     1     1  0.910      0.910      4.244e-13 
   1   134   1     0     1     1  0.910      0.910      8.488e-13 
   1   135   1     0     1     1  0.910      0.910      1.698e-12 
   1   136   1     0     1     1  0.910      0.910      3.395e-12 
   1   137   1     0     1     1  0.910      0.910      6.790e-12 
   1   138   1     0     1     1  0.910      0.910      1.358e-11 
   1   139   1     0     1     1  0.910      0.910      2.716e-11 
   1   140   1     0     1     1  0.910      0.910      5.432e-11 
   1   141   1U    0     1     1  0.910      0.910      1.086e-10 
   1   141   2     0     1     1  0.910      0.910      6.634e-17 
   1   142   1     0     1     1  0.910      0.910      6.634e-17 
   1   143   1     0     1     1  0.910      0.910      6.634e-17 
   1   144   1     0     1     1  0.910      0.910      1.327e-16 
   1   145   1     0     1     1  0.910      0.910      2.653e-16 
   1   146   1     0     1     1  0.910      0.910      5.307e-16 
   1   147   1     0     1     1  0.910      0.910      1.061e-15 
   1   148   1     0     1     1  0.910      0.910      2.123e-15 
   1   149   1     0     1     1  0.910      0.910      4.246e-15 
   1   150   1     0     1     1  0.910      0.910      8.491e-15 
   1   151   1     0     1     1  0.910      0.910      1.698e-14 
   1   152   1     0     1     1  0.910      0.910      3.396e-14 
   1   153   1     0     1     1  0.910      0.910      6.793e-14 
   1   154   1     0     1     1  0.910      0.910      1.359e-13 
   1   155   1     0     1     1  0.910      0.910      2.717e-13 
   1   156   1     0     1     1  0.910      0.910      5.434e-13 
   1   157   1     0     1     1  0.910      0.910      1.087e-12 
   1   158   1     0     1     1  0.910      0.910      2.174e-12 
   1   159   1     0     1     1  0.910      0.910      4.347e-12 
   1   160   1     0     1     1  0.910      0.910      8.695e-12 
   1   161   1     0     1     1  0.910      0.910      1.739e-11 
   1   162   1     0     1     1  0.910      0.910      3.478e-11 
   1   163   1     0     1     1  0.910      0.910      6.956e-11 
   1   164   1U    0     5     5  0.910      0.910      1.391e-10 
   1   164   2     0     1     1  0.910      0.910      3.478e-11 
   1   165   1U    0     4     4  0.910      0.910      6.956e-11 
   1   165   2     0     1     1  0.910      0.910      1.739e-11 
   1   166   1     0     1     1  0.910      0.910      3.478e-11 
   1   167   1     0     1     1  0.910      0.910      6.956e-11 
   1   168   1     0     1     1  0.910      0.910      1.391e-10 
   1   169   1     0     1     1  0.910      0.910      2.782e-10 
   1   170   1     0     1     1  0.910      0.910      5.565e-10 
   1   171   1     0     1     1  0.910      0.910      1.113e-09 
   1   172   1     0     1     1  0.910      0.910      2.226e-09 
   1   173   1     0     1     1  0.910      0.910      4.452e-09 
   1   174   1     0     1     1  0.910      0.910      8.903e-09 
   1   175   1     0     1     1  0.910      0.910      1.781e-08 
   1   176   1     0     1     1  0.910      0.910      3.561e-08 
   1   177   1     0     1     1  0.910      0.910      7.123e-08 
   1   178   1     0     1     1  0.910      0.910      1.425e-07 
   1   179   1     0     1     1  0.910      0.910      2.849e-07 
   1   180   1     0     1     1  0.910      0.910      5.698e-07 
   1   181   1     0     1     1  0.910      0.910      1.140e-06 
   1   182   1     0     1     1  0.910      0.910      2.279e-06 
   1   183   1     0     1     1  0.910      0.910      4.559e-06 
   1   184   1     0     1     1  0.910      0.910      9.117e-06 
   1   185   1     0     1     1  0.910      0.910      1.823e-05 
   1   186   1     0     1     1  0.910      0.910      3.647e-05 
   1   187   1     0     1     1  0.911      0.911      7.294e-05 
   1   188   1     0     1     1  0.911      0.911      0.0001459 
   1   189   1U    0     4     4  0.911      0.911      0.0002917 
   1   189   2     0     1     1  0.911      0.911      7.294e-05 
   1   190   1     0     1     1  0.911      0.911      0.0001459 
   1   191   1     0     1     1  0.911      0.911      0.0002917 
   1   192   1     0     1     1  0.912      0.912      0.0005835 
   1   193   1     0     1     1  0.913      0.913      0.001167  
   1   194   1     0     1     1  0.915      0.915      0.002334  
   1   195   1     0     1     1  0.920      0.920      0.004668  
   1   196   1U    0     4     4  0.920      0.920      0.009336  
   1   196   2     0     1     1  0.922      0.922      0.002334  
   1   197   1     0     1     1  0.927      0.927      0.004668  
   1   198   1     0     1     1  0.936      0.936      0.009336  
   1   199   1     0     1     1  0.946      0.946      0.01000   
   1   200   1     0     1     1  0.956      0.956      0.01000   
   1   201   1     0     1     1  0.966      0.966      0.01000   
   1   202   1     0     1     1  0.976      0.976      0.01000   
   1   203   1     0     1     1  0.986      0.986      0.01000   
   1   204   1     0     1     1  0.996      0.996      0.01000   
   1   205   1     0     1     1  1.00       1.00       0.003707  
                          
 THE ANALYSIS HAS COMPLETED SUCCESSFULLY
