*Heading
** Job name: new_c3d10 Model name: 4_grn_C3D10T
** Generated by: Abaqus/CAE 2024
*Preprint, echo=NO, model=NO, history=NO, contact=NO
**
** PARTS
**
*Part, name=PART-1
*Node
      1,   2.79999995,           0.,   1.60000002
      2,   2.79999995,  0.400000006,   1.60000002
      3,    2.4000001,           0.,           2.
      4,    2.4000001,  0.400000006,           2.
      5,   2.79999995,           0.,           2.
      6,   3.20000005,           0.,           2.
      7,   3.20000005,  0.400000006,           2.
      8,   2.79999995,  0.800000012,           2.
      9,    2.4000001,           0.,   2.79999995
     10,   2.79999995,           0.,   2.79999995
     11,    2.4000001,  0.400000006,   2.79999995
     12,   3.20000005,           0.,   2.79999995
     13,   3.20000005,  0.400000006,   2.79999995
     14,   2.79999995,  0.800000012,   2.79999995
     15,    2.4000001,           0.,    3.5999999
     16,   2.79999995,           0.,    3.5999999
     17,    2.4000001,  0.400000006,    3.5999999
     18,    3.5999999,           0.,   3.20000005
     19,    3.5999999,           0.,    3.5999999
     20,    3.5999999,  0.400000006,   3.20000005
** ... 2578 like lines cut
*Element, type=C3D10T
   1,  368,  369,  370,  371,  499,  498,  497,  501,  500,  502
   2,    2,   77,  372,   78,  505,  504,  503,  507,  506,  508
   3,  207,  373,  185,  374,  511,  510,  509,  513,  512,  514
   4,  375,  376,  377,  378,  517,  516,  515,  519,  518,  520
   5,  186,  374,  185,  379,  522,  514,  521,  524,  523,  525
   6,  380,  372,   37,   38,  528,  527,  526,  530,  529,  531
   7,   38,   39,  372,  381,  533,  532,  529,  535,  534,  536
   8,  381,  378,   78,  377,  539,  538,  537,  540,  520,  541
   9,  207,  374,  203,  373,  513,  543,  542,  511,  512,  544
  10,  374,  379,  382,  373,  523,  546,  545,  512,  547,  548
  11,  383,  374,  379,  382,  550,  523,  549,  551,  545,  546
  12,  384,  385,  386,  387,  554,  553,  552,  556,  555,  557
  13,  379,  382,  373,  388,  546,  548,  547,  559,  558,  560
  14,  207,  389,  185,  373,  562,  561,  509,  511,  563,  510
  15,  374,  382,  179,  373,  545,  565,  564,  512,  548,  566
  16,  390,  391,   84,  392,  569,  568,  567,  571,  570,  572
  17,  390,  372,  393,  394,  575,  574,  573,  577,  576,  578
  18,  395,  372,  384,  390,  581,  580,  579,  582,  575,  583
  19,   71,   67,   90,  396,  586,  585,  584,  588,  587,  589
  20,  390,  391,  397,   84,  569,  591,  590,  567,  568,  592
** ... 1618 like lines cut
*Elset, elset=MICRO-1_GRAIN_1, generate
  981,  1168,     1
*Elset, elset=MICRO-1_GRAIN_2, generate
 1241,  1638,     1
*Elset, elset=MICRO-1_GRAIN_3, generate
   1,  980,    1
*Elset, elset=MICRO-1_GRAIN_4, generate
 1169,  1240,     1
** Section: Section-1-MICRO-1_GRAIN_3
*Solid Section, elset=MICRO-1_GRAIN_3, material=MAT1_GRN1
,
** Section: Section-2-MICRO-1_GRAIN_1
*Solid Section, elset=MICRO-1_GRAIN_1, material=MAT2_GRN12
,
** Section: Section-3-MICRO-1_GRAIN_4
*Solid Section, elset=MICRO-1_GRAIN_4, material=MAT2_GRN25
,
** Section: Section-4-MICRO-1_GRAIN_2
*Solid Section, elset=MICRO-1_GRAIN_2, material=MAT3_GRN7
,
*End Part
**  
**
** ASSEMBLY
**
*Assembly, name=Assembly
**  
*Instance, name=PART-1-1, part=PART-1
*End Instance
** 
*Nset, nset=Set-102, instance=PART-1-1, generate 
  1,  2710, 1 
*Elset, elset=Set-102, instance=PART-1-1, generate
  1,  1638,   1 
*Nset, nset=FIXED_X, instance=PART-1-1
   33,   44,   50,   63,   68,   75,   81,   83,   89,   92,   98,  109,  112,  120,  125,  133
  142,  145,  148,  159,  167,  175,  180,  182,  188,  672,  676,  677,  817,  826,  828, 1133
 1135, 1137, 1140, 1141, 1198, 1200, 1252, 1313, 1324, 1394, 1462, 1463, 1470, 1496, 1531, 1532
 1533, 1630, 1634, 1635, 1650, 1658, 1677, 1688, 1702, 1710, 1739, 1741, 1748, 1787, 1799, 1800
 1823, 1824, 1830, 1835, 1837, 1838, 1843, 1854, 1855, 1859, 1877, 1878, 1880, 1886, 1902, 1903
 1926,
*Nset, nset=FIXED_Y, instance=PART-1-1
    1,    3,    5,    6,    9,   10,   12,   15,   16,   18,   19,   31,   34,   37,   38,   41
   74,   76,   77,   78,   79,   97,   99,  100,  106,  132,  134,  135,  139,  166,  168,  169
  506,  531,  743,  847,  901,  907,  917,  926, 1065, 1121, 1127, 1150, 1268, 1328, 1354, 1390
 1427, 1465, 1505, 1539, 1540, 1587, 1588, 1601, 1619, 1636, 1637, 1638, 1669, 1675, 1678, 1679
 1680, 1683, 1684, 1685, 1696, 1697, 1698, 1699, 1745, 1746, 1780, 1785, 1786, 1822, 1833, 1856
 1862, 1864, 1870, 1871, 1872, 1875, 1876, 1879, 1881, 1898, 1899, 1929, 2187, 2191, 2202, 2203
 2209, 2211, 2214, 2215, 2234, 2236, 2245, 2246, 2248, 2250, 2251
*Nset, nset=FIXED_Z, instance=PART-1-1
   32,   35,   36,   39,   40,   43,   45,   46,   47,   48,   51,   52,   53,   54,   57,   59
   62,   64,   65,   69,   70,  219,  224,  227,  232,  236,  237,  238,  241,  243,  244,  245
  719,  720,  721,  970,  972,  974,  999, 1078, 1094, 1095, 1098, 1099, 1173, 1318, 1399, 1518
 1521, 1524, 1574, 1577, 1615, 1616, 1672, 1673, 1828, 1829, 1865, 1867, 1889, 1904, 1908, 1909
 1911, 1913, 1916, 1917, 1918, 1920, 1925, 1927, 1928, 1930, 1931, 2267, 2303, 2430, 2458, 2460
 2461, 2494, 2495, 2506, 2509, 2510, 2569, 2572, 2573, 2574, 2613, 2629, 2641, 2665, 2673, 2674
 2678, 2687, 2688, 2691, 2697, 2699, 2703, 2704, 2707, 2709, 2710
*Nset, nset=LOAD_X, instance=PART-1-1
   21,   22,   25,   42,   49,   61,   80,   82,   88,  108,  111,  118,  119,  124,  141,  144
  147,  157,  158,  179,  181,  187,  230,  239,  246,  257,  260,  263,  279,  282,  297,  303
  304,  311,  327,  347,  351,  595,  596,  597,  606,  665,  763,  767,  888, 1058, 1066, 1106
 1208, 1211, 1498, 1500, 1519, 1536, 1617, 1618, 1623, 1625, 1626, 1641, 1771, 1772, 1777, 1804
 1806, 1807, 1810, 1817, 1844, 1846, 1849, 1851, 1858, 1868, 1869, 1890, 1891, 1893, 1894, 1895
 1901, 2016, 2018, 2081, 2122, 2123, 2124, 2132, 2136, 2140, 2156, 2163, 2174, 2175, 2177, 2239
 2241, 2329, 2356, 2382, 2571, 2590, 2600, 2603, 2632, 2633, 2635, 2636, 2647, 2653, 2654, 2655
 2656, 2666, 2668, 2672, 2675, 2677, 2680, 2692, 2693, 2694, 2705, 2706
*Nset, nset=temp, instance=PART-1-1
   26,   27,   28,   29,   30,  193,  194,  195,  197,  198,  199,  201,  203,  204,  205,  206
  207,  208,  209,  210,  211,  212,  213,  214,  215,  216,  217,  359,  361,  363,  365,  366
  367,  542,  621,  734,  735,  736, 1178, 1180, 1181, 1224, 1225, 1226, 1233, 1235, 1236, 1259
 1261, 1333, 1404, 1405, 1415, 1457, 1458, 1459, 1559, 1608, 1610, 1611, 1656, 1692, 1693, 1705
 1706, 1707, 1709, 1712, 1713, 1715, 1716, 1721, 1722, 1727, 1728, 1730, 1731, 1733, 1734, 1735
 1736, 1738, 1742, 1768, 1832, 1853, 1914, 2044, 2051, 2053, 2062, 2066, 2072, 2074, 2075, 2076
 2084, 2097, 2127, 2146, 2147, 2148, 2155, 2160, 2221, 2243, 2244, 2255, 2257
*End Assembly
*Amplitude, name=AMP-1
             0.,              0.,              1.,            0.05
** 
** MATERIALS
** 
*Material, name=MAT1_GRN1 
*Density
1., 
*Depvar 
     76, 
*User Material, constants=8, type=MECHANICAL 
768.,1., 595., 0.059, 217.72, 121.79, 93.733, 0.3
*User Material, constants=8, type=THERMAL
0.01271, 4, 20.2e6, 0., 58.6e6, 8.464e13, 11.5e6, 8.464e17
**
*Material, name=MAT2_GRN12
*Density
1., 
*Depvar 
     76, 
*User Material, constants=8, type=MECHANICAL 
768.,1., 595., 0.059, 217.72, 121.79, 93.733, 0.3
*User Material, constants=8, type=THERMAL
0.01271, 4, 20.2e6, 0., 58.6e6, 8.464e13, 11.5e6, 8.464e17
**
*Material, name=MAT2_GRN25 
*Density
1., 
*Depvar 
     76, 
*User Material, constants=8, type=MECHANICAL 
768.,1., 595., 0.059, 217.72, 121.79, 93.733, 0.3
*User Material, constants=8, type=THERMAL
0.01271, 4, 20.2e6, 0., 58.6e6, 8.464e13, 11.5e6, 8.464e17
**
*Material, name=MAT3_GRN7
*Density
1., 
*Depvar 
     76, 
*User Material, constants=8, type=MECHANICAL 
768.,1., 595., 0.059, 217.72, 121.79, 93.733, 0.3
*User Material, constants=8, type=THERMAL
0.01271, 4, 20.2e6, 0., 58.6e6, 8.464e13, 11.5e6, 8.464e17
** 
***********************************************   
** PREDEFINED FIELDS
** 
** Name: Predefined Field-1   Type: Temperature
*Initial Conditions, type=TEMPERATURE
Set-102, 2.659e11
**
** BOUNDARY CONDITIONS
** 
** Name: Disp-BC-1 Type: Displacement/Rotation
*Boundary
FIXED_X, 1, 1
** Name: Disp-BC-2 Type: Displacement/Rotation
*Boundary
FIXED_Y, 2, 2
** Name: Disp-BC-3 Type: Displacement/Rotation
*Boundary
FIXED_Z, 3, 3
** 
** 
** ----------------------------------------------------------------
** 
** ----------------------------------------------------------------
*Step, name=Step-1, nlgeom=YES, inc=1000000, unsymm=YES, amplitude=RAMP
*Coupled Temperature-displacement, creep=none, deltmx=1e13
0.0001, 1., 1e-25, 0.01
**
** BOUNDARY CONDITIONS Loading
** 
** Name: Disp-BC-4 Type: Displacement/Rotation
*Boundary
LOAD_X, 1, 1, 0.05
** Name: temp Type: Temperature
*Boundary
temp, 11, 11, 2.659e13 
** 
** OUTPUT REQUESTS 
**  
*Restart, write, frequency=0 
**  
** FIELD OUTPUT: F-Output-1 
**  
*Output, field, frequency=1
*Node Output 
NT, RF, RFL, U 
**  
** FIELD OUTPUT: F-Output-2 
**  
*Element Output, directions=YES
E, HFL, LE, S, SDV, TEMP, S
*Output, history, frequency=0 
*End Step 
