1

   Abaqus 2024                                  Date 13-Jun-2025   Time 10:26:27
   For use by UNIVERSITY OF WYOMING under license from Dassault Systemes or its subsidiary.

                                                                                 
                                                                                 
 STEP    1     INCREMENT     1     STEP TIME    0.00    


                        S T E P       1     C O U P L E D - T E M P E R A T U R E - D I S P L A C E M E N T   A N A L Y S I S


                                                                                          

     AUTOMATIC TIME CONTROL WITH -
          A SUGGESTED INITIAL TIME INCREMENT OF                1.000E-04
          AND A TOTAL TIME PERIOD OF                            1.00    
          THE MINIMUM TIME INCREMENT ALLOWED IS                1.000E-25
          THE MAXIMUM TIME INCREMENT ALLOWED IS                1.000E-02

          CREEP AND SWELLING EFFECTS ARE OMITTED IN THIS STEP

     THE SIZE OF THE TIME INCREMENT IS CONTROLLED BY -
          THE TEMPERATURE CHANGE PER INCREMENT NOT EXCEEDING           1.000E+13
          THE RATE DEPENDENCY WILL BE CONSIDERED IN THIS STEP

          CREEP AND SWELLING EFFECTS WILL BE IGNORED.

 CONVERGENCE TOLERANCE PARAMETERS FOR FORCE    
     CRITERION FOR RESIDUAL FORCE     FOR A NONLINEAR PROBLEM          5.000E-03
     CRITERION FOR DISP.    CORRECTION IN A NONLINEAR PROBLEM          1.000E-02
     INITIAL VALUE OF TIME AVERAGE FORCE                               1.000E-02
     AVERAGE FORCE     IS TIME AVERAGE FORCE    
     ALTERNATE CRIT. FOR RESIDUAL FORCE     FOR A NONLINEAR PROBLEM    2.000E-02
     CRITERION FOR ZERO FORCE     RELATIVE TO TIME AVRG. FORCE         1.000E-05
     CRITERION FOR RESIDUAL FORCE     WHEN THERE IS ZERO FLUX          1.000E-05
     CRITERION FOR DISP.    CORRECTION WHEN THERE IS ZERO FLUX         1.000E-03
     CRITERION FOR RESIDUAL FORCE     FOR A LINEAR INCREMENT           1.000E-08
     FIELD CONVERSION RATIO                                             1.00    
     CRITERION FOR ZERO FORCE     REL. TO TIME AVRG. MAX. FORCE        1.000E-05
     CRITERION FOR ZERO DISP.    RELATIVE TO CHARACTERISTIC LENGTH     1.000E-08

 CONVERGENCE TOLERANCE PARAMETERS FOR HEAT FLUX
     CRITERION FOR RESIDUAL HEAT FLUX FOR A NONLINEAR PROBLEM          5.000E-03
     CRITERION FOR TEMP.    CORRECTION IN A NONLINEAR PROBLEM          1.000E-02
     INITIAL VALUE OF TIME AVERAGE HEAT FLUX                           1.000E-02
     AVERAGE HEAT FLUX IS TIME AVERAGE HEAT FLUX
     ALTERNATE CRIT. FOR RESIDUAL HEAT FLUX FOR A NONLINEAR PROBLEM    2.000E-02
     CRITERION FOR ZERO HEAT FLUX RELATIVE TO TIME AVRG. HEAT FLUX     1.000E-05
     CRITERION FOR RESIDUAL HEAT FLUX WHEN THERE IS ZERO FLUX          1.000E-05
     CRITERION FOR TEMP.    CORRECTION WHEN THERE IS ZERO FLUX         1.000E-03
     CRITERION FOR RESIDUAL HEAT FLUX FOR A LINEAR INCREMENT           1.000E-08
     FIELD CONVERSION RATIO                                             1.00    
     CRITERION FOR ZERO HEAT FLUX REL. TO TIME AVRG. MAX. HEAT FLUX    1.000E-05

     VOLUMETRIC STRAIN COMPATIBILITY TOLERANCE FOR HYBRID SOLIDS       1.000E-05
     AXIAL STRAIN COMPATIBILITY TOLERANCE FOR HYBRID BEAMS             1.000E-05
     TRANS. SHEAR STRAIN COMPATIBILITY TOLERANCE FOR HYBRID BEAMS      1.000E-05
     SOFT CONTACT CONSTRAINT COMPATIBILITY TOLERANCE FOR P>P0          5.000E-03
     SOFT CONTACT CONSTRAINT COMPATIBILITY TOLERANCE FOR P=0.0         0.100    
     CONTACT FORCE ERROR TOLERANCE FOR CONVERT SDI=YES                 1.00    
     DISPLACEMENT COMPATIBILITY TOLERANCE FOR DCOUP ELEMENTS           1.000E-05
     ROTATION COMPATIBILITY TOLERANCE FOR DCOUP ELEMENTS               1.000E-05

 EQUILIBRIUM WILL BE CHECKED FOR SEVERE DISCONTINUITY ITERATIONS

 TIME INCREMENTATION CONTROL PARAMETERS:
     FIRST EQUILIBRIUM ITERATION FOR CONSECUTIVE DIVERGENCE CHECK              4
     EQUILIBRIUM ITERATION AT WHICH LOG. CONVERGENCE RATE CHECK BEGINS         8
     EQUILIBRIUM ITERATION AFTER WHICH ALTERNATE RESIDUAL IS USED              9
     MAXIMUM EQUILIBRIUM ITERATIONS ALLOWED                                   16
     EQUILIBRIUM ITERATION COUNT FOR CUT-BACK IN NEXT INCREMENT               10
     MAXIMUM EQUILIB. ITERS IN TWO INCREMENTS FOR TIME INCREMENT INCREASE      4
     MAXIMUM ITERATIONS FOR SEVERE DISCONTINUITIES                            50
     MAXIMUM ATTEMPTS ALLOWED IN AN INCREMENT                                  5
     MAXIMUM DISCON. ITERS IN TWO INCREMENTS FOR TIME INCREMENT INCREASE      50
     MAXIMUM CONTACT AUGMENTATIONS FOR *SURFACE BEHAVIOR,AUGMENTED LAGRANGE   50
     CONSECUTIVE INCS MEETING TIME INTEG. TOL. FOR TIME INC. INCREASE          3
     CUT-BACK FACTOR AFTER DIVERGENCE                                 0.2500    
     CUT-BACK FACTOR FOR TOO SLOW CONVERGENCE                         0.5000    
     CUT-BACK FACTOR AFTER TOO MANY EQUILIBRIUM ITERATIONS            0.7500    
     CUT-BACK FACTOR AFTER TOO MANY SEVERE DISCONTINUITY ITERATIONS   0.2500    
     CUT-BACK FACTOR AFTER PROBLEMS IN ELEMENT ASSEMBLY               0.2500    
     INCREASE FACTOR AFTER TWO INCREMENTS THAT CONVERGE QUICKLY        1.500    
     MAX. TIME INCREMENT INCREASE FACTOR ALLOWED                       1.500    
     MAX. TIME INCREMENT INCREASE FACTOR ALLOWED (DYNAMICS)            1.250    
     MAX. TIME INCREMENT INCREASE FACTOR ALLOWED (DIFFUSION)           2.000    
     MINIMUM TIME INCREMENT RATIO FOR EXTRAPOLATION TO OCCUR          0.1000    
     CUT-BACK FACTOR WHEN TIME INTEGRATION ACCURACY TOL. EXCEEDED     0.8500    
     MAX. RATIO OF TIME INTEG. MEASURE TO TOL. FOR TIME INC. INCREASE 0.7500    
     INCREASE FACTOR FOR TIME INCREMENT WHEN POSSIBLE                 0.8000    
     MIN. TIME INC. INCREASE FACTOR IN LINEAR TRANSIENT PROBLEMS      0.9500    
     MAX. RATIO OF TIME INCREMENT TO STABILITY LIMIT                   1.000    
     FRACTION OF STABILITY LIMIT FOR NEW TIME INCREMENT               0.9500    
     TIME INCREMENT INCREASE FACTOR BEFORE A TIME POINT                1.000    
     GLOBAL STABILIZATION CONTROL IS NOT USED

          PRINT OF INCREMENT NUMBER, TIME, ETC., EVERY    1  INCREMENTS

     THE MAXIMUM NUMBER OF INCREMENTS IN THIS STEP IS                 1000000

          LARGE DISPLACEMENT THEORY WILL BE USED

          UNSYMMETRIC MATRIX STORAGE AND SOLUTION WILL BE USED

     LINEAR EXTRAPOLATION WILL BE USED

     CHARACTERISTIC ELEMENT LENGTH     0.961    

     DETAILS REGARDING ACTUAL SOLUTION WAVEFRONT REQUESTED

     DETAILED OUTPUT OF DIAGNOSTICS TO DATABASE REQUESTED

     PRINT OF INCREMENT NUMBER, TIME, ETC., TO THE MESSAGE FILE EVERY     1  INCREMENTS

     COLLECTING MODEL CONSTRAINT INFORMATION FOR OVERCONSTRAINT CHECKS

     COLLECTING STEP CONSTRAINT INFORMATION FOR OVERCONSTRAINT CHECKS


  INCREMENT     1 STARTS. ATTEMPT NUMBER  1, TIME INCREMENT  1.000E-04
 
	UNSYMMETRIC NEW DIRECT SPARSE SOLVER RUNNING ON
 	1 HOST x 1 MPI RANK PER HOST x 1 THREAD PER RANK
        NUMBER OF EQUATIONS:  8178
        NUMBER OF RHS:        1
        NUMBER OF FLOPS:      2.590e+09
        SOLVER ELAPSED TIME:  95ms

               CONVERGENCE CHECKS FOR EQUILIBRIUM ITERATION     1


 AVERAGE FORCE                      7.214E-06   TIME AVG. FORCE       7.214E-06
 LARGEST SCALED RESIDUAL FORCE      1.608E-09   AT NODE       1700   DOF  1
   INSTANCE: PART-1-1                                                                        
  CORRESPONDING RESIDUAL FORCE      1.608E-09
 LARGEST INCREMENT OF DISP.         5.176E-06   AT NODE        735   DOF  1
   INSTANCE: PART-1-1                                                                        
 LARGEST CORRECTION TO DISP.        5.176E-06   AT NODE        735   DOF  1
   INSTANCE: PART-1-1                                                                        
          DISP.    CORRECTION TOO LARGE COMPARED TO DISP.    INCREMENT

 AVERAGE HEAT FLUX                  4.086E+11   TIME AVG. HEAT FLUX   4.086E+11
 LARGEST RESIDUAL HEAT FLUX         1.908E+05   AT NODE        462   DOF 11
   INSTANCE: PART-1-1                                                                        
 LARGEST INCREMENT OF TEMP.         2.632E+09   AT NODE         26   DOF 11
   INSTANCE: PART-1-1                                                                        
 LARGEST CORRECTION TO TEMP.        2.632E+09   AT NODE         26   DOF 11
   INSTANCE: PART-1-1                                                                        
          TEMP.    CORRECTION TOO LARGE COMPARED TO TEMP.    INCREMENT
 
	UNSYMMETRIC NEW DIRECT SPARSE SOLVER RUNNING ON
 	1 HOST x 1 MPI RANK PER HOST x 1 THREAD PER RANK
        NUMBER OF EQUATIONS:  8178
        NUMBER OF RHS:        1
        NUMBER OF FLOPS:      2.590e+09
        SOLVER ELAPSED TIME:  85ms

               CONVERGENCE CHECKS FOR EQUILIBRIUM ITERATION     2


 AVERAGE FORCE                      7.214E-06   TIME AVG. FORCE       7.214E-06
 LARGEST SCALED RESIDUAL FORCE     -1.233E-14   AT NODE       1642   DOF  2
   INSTANCE: PART-1-1                                                                        
  CORRESPONDING RESIDUAL FORCE     -1.233E-14
 LARGEST INCREMENT OF DISP.         5.176E-06   AT NODE        735   DOF  1
   INSTANCE: PART-1-1                                                                        
 LARGEST CORRECTION TO DISP.       -2.834E-11   AT NODE       1886   DOF  2
   INSTANCE: PART-1-1                                                                        
          THE FORCE     EQUILIBRIUM EQUATIONS HAVE CONVERGED

 AVERAGE HEAT FLUX                  4.086E+11   TIME AVG. HEAT FLUX   4.086E+11
 LARGEST RESIDUAL HEAT FLUX         5.382E-04   AT NODE        445   DOF 11
   INSTANCE: PART-1-1                                                                        
 LARGEST INCREMENT OF TEMP.         2.632E+09   AT NODE         26   DOF 11
   INSTANCE: PART-1-1                                                                        
 LARGEST CORRECTION TO TEMP.         4.21       AT NODE        445   DOF 11
   INSTANCE: PART-1-1                                                                        
          THE HEAT FLUX EQUILIBRIUM EQUATIONS HAVE CONVERGED

 MAXIMUM NON-PRESCRIBED INCREMENT IN TEMPERATURE IS   1.022E+03

 ITERATION SUMMARY FOR THE INCREMENT:   2 TOTAL ITERATIONS, OF WHICH
   0 ARE SEVERE DISCONTINUITY ITERATIONS AND  2 ARE EQUILIBRIUM ITERATIONS.

 TIME INCREMENT COMPLETED  1.000E-04,  FRACTION OF STEP COMPLETED  1.000E-04
 STEP TIME COMPLETED       1.000E-04,  TOTAL TIME COMPLETED        1.000E-04


  INCREMENT     2 STARTS. ATTEMPT NUMBER  1, TIME INCREMENT  1.000E-04
 
	UNSYMMETRIC NEW DIRECT SPARSE SOLVER RUNNING ON
 	1 HOST x 1 MPI RANK PER HOST x 1 THREAD PER RANK
        NUMBER OF EQUATIONS:  8178
        NUMBER OF RHS:        1
        NUMBER OF FLOPS:      2.590e+09
        SOLVER ELAPSED TIME:  85ms

               CONVERGENCE CHECKS FOR EQUILIBRIUM ITERATION     1


 AVERAGE FORCE                      1.445E-05   TIME AVG. FORCE       1.083E-05
 LARGEST SCALED RESIDUAL FORCE      1.610E-14   AT NODE       1642   DOF  1
   INSTANCE: PART-1-1                                                                        
  CORRESPONDING RESIDUAL FORCE      1.610E-14
 LARGEST INCREMENT OF DISP.         5.176E-06   AT NODE        735   DOF  1
   INSTANCE: PART-1-1                                                                        
 LARGEST CORRECTION TO DISP.       -5.681E-11   AT NODE       1886   DOF  2
   INSTANCE: PART-1-1                                                                        
          THE FORCE     EQUILIBRIUM RESPONSE WAS LINEAR IN THIS INCREMENT

 AVERAGE HEAT FLUX                  7.835E+12   TIME AVG. HEAT FLUX   4.122E+12
 LARGEST RESIDUAL HEAT FLUX         1.900E+04   AT NODE         20   DOF 11
   INSTANCE: PART-1-1                                                                        
 LARGEST INCREMENT OF TEMP.         2.632E+09   AT NODE         26   DOF 11
   INSTANCE: PART-1-1                                                                        
 LARGEST CORRECTION TO TEMP.        1.030E+03   AT NODE        445   DOF 11
   INSTANCE: PART-1-1                                                                        
          THE HEAT FLUX EQUILIBRIUM RESPONSE WAS LINEAR IN THIS INCREMENT

 MAXIMUM NON-PRESCRIBED INCREMENT IN TEMPERATURE IS   2.052E+03

 ITERATION SUMMARY FOR THE INCREMENT:   1 TOTAL ITERATIONS, OF WHICH
   0 ARE SEVERE DISCONTINUITY ITERATIONS AND  1 ARE EQUILIBRIUM ITERATIONS.

 TIME INCREMENT COMPLETED  1.000E-04,  FRACTION OF STEP COMPLETED  2.000E-04
 STEP TIME COMPLETED       2.000E-04,  TOTAL TIME COMPLETED        2.000E-04


  INCREMENT     3 STARTS. ATTEMPT NUMBER  1, TIME INCREMENT  1.000E-04
 
	UNSYMMETRIC NEW DIRECT SPARSE SOLVER RUNNING ON
 	1 HOST x 1 MPI RANK PER HOST x 1 THREAD PER RANK
        NUMBER OF EQUATIONS:  8178
        NUMBER OF RHS:        1
        NUMBER OF FLOPS:      2.590e+09
        SOLVER ELAPSED TIME:  85ms

               CONVERGENCE CHECKS FOR EQUILIBRIUM ITERATION     1


 AVERAGE FORCE                      2.167E-05   TIME AVG. FORCE       1.445E-05
 LARGEST SCALED RESIDUAL FORCE      1.542E-14   AT NODE       1642   DOF  1
   INSTANCE: PART-1-1                                                                        
  CORRESPONDING RESIDUAL FORCE      1.542E-14
 LARGEST INCREMENT OF DISP.         5.176E-06   AT NODE        735   DOF  1
   INSTANCE: PART-1-1                                                                        
 LARGEST CORRECTION TO DISP.       -6.079E-11   AT NODE       1886   DOF  2
   INSTANCE: PART-1-1                                                                        
          THE FORCE     EQUILIBRIUM RESPONSE WAS LINEAR IN THIS INCREMENT

 AVERAGE HEAT FLUX                  7.753E+12   TIME AVG. HEAT FLUX   5.332E+12
 LARGEST RESIDUAL HEAT FLUX         9.502E+03   AT NODE         20   DOF 11
   INSTANCE: PART-1-1                                                                        
 LARGEST INCREMENT OF TEMP.         2.632E+09   AT NODE         26   DOF 11
   INSTANCE: PART-1-1                                                                        
 LARGEST CORRECTION TO TEMP.        1.039E+03   AT NODE        445   DOF 11
   INSTANCE: PART-1-1                                                                        
          THE HEAT FLUX EQUILIBRIUM RESPONSE WAS LINEAR IN THIS INCREMENT

 MAXIMUM NON-PRESCRIBED INCREMENT IN TEMPERATURE IS   3.091E+03
          TIME INCREMENT MAY NOW INCREASE TO    2.000E-04

 ITERATION SUMMARY FOR THE INCREMENT:   1 TOTAL ITERATIONS, OF WHICH
   0 ARE SEVERE DISCONTINUITY ITERATIONS AND  1 ARE EQUILIBRIUM ITERATIONS.

 TIME INCREMENT COMPLETED  1.000E-04,  FRACTION OF STEP COMPLETED  3.000E-04
 STEP TIME COMPLETED       3.000E-04,  TOTAL TIME COMPLETED        3.000E-04


  INCREMENT     4 STARTS. ATTEMPT NUMBER  1, TIME INCREMENT  2.000E-04
 
	UNSYMMETRIC NEW DIRECT SPARSE SOLVER RUNNING ON
 	1 HOST x 1 MPI RANK PER HOST x 1 THREAD PER RANK
        NUMBER OF EQUATIONS:  8178
        NUMBER OF RHS:        1
        NUMBER OF FLOPS:      2.590e+09
        SOLVER ELAPSED TIME:  89ms

               CONVERGENCE CHECKS FOR EQUILIBRIUM ITERATION     1


 AVERAGE FORCE                      3.611E-05   TIME AVG. FORCE       1.986E-05
 LARGEST SCALED RESIDUAL FORCE      1.039E-13   AT NODE       1642   DOF  1
   INSTANCE: PART-1-1                                                                        
  CORRESPONDING RESIDUAL FORCE      1.039E-13
 LARGEST INCREMENT OF DISP.         1.035E-05   AT NODE        735   DOF  1
   INSTANCE: PART-1-1                                                                        
 LARGEST CORRECTION TO DISP.       -1.703E-10   AT NODE       1886   DOF  2
   INSTANCE: PART-1-1                                                                        
          THE FORCE     EQUILIBRIUM RESPONSE WAS LINEAR IN THIS INCREMENT

 AVERAGE HEAT FLUX                  7.593E+12   TIME AVG. HEAT FLUX   5.897E+12
 LARGEST RESIDUAL HEAT FLUX         1.900E+04   AT NODE         20   DOF 11
   INSTANCE: PART-1-1                                                                        
 LARGEST INCREMENT OF TEMP.         5.265E+09   AT NODE         26   DOF 11
   INSTANCE: PART-1-1                                                                        
 LARGEST CORRECTION TO TEMP.        4.204E+03   AT NODE        445   DOF 11
   INSTANCE: PART-1-1                                                                        
          THE HEAT FLUX EQUILIBRIUM RESPONSE WAS LINEAR IN THIS INCREMENT

 MAXIMUM NON-PRESCRIBED INCREMENT IN TEMPERATURE IS   1.038E+04
          TIME INCREMENT MAY NOW INCREASE TO    4.000E-04

 ITERATION SUMMARY FOR THE INCREMENT:   1 TOTAL ITERATIONS, OF WHICH
   0 ARE SEVERE DISCONTINUITY ITERATIONS AND  1 ARE EQUILIBRIUM ITERATIONS.

 TIME INCREMENT COMPLETED  2.000E-04,  FRACTION OF STEP COMPLETED  5.000E-04
 STEP TIME COMPLETED       5.000E-04,  TOTAL TIME COMPLETED        5.000E-04


  INCREMENT     5 STARTS. ATTEMPT NUMBER  1, TIME INCREMENT  4.000E-04
 
	UNSYMMETRIC NEW DIRECT SPARSE SOLVER RUNNING ON
 	1 HOST x 1 MPI RANK PER HOST x 1 THREAD PER RANK
        NUMBER OF EQUATIONS:  8178
        NUMBER OF RHS:        1
        NUMBER OF FLOPS:      2.590e+09
        SOLVER ELAPSED TIME:  85ms

               CONVERGENCE CHECKS FOR EQUILIBRIUM ITERATION     1


 AVERAGE FORCE                      6.499E-05   TIME AVG. FORCE       2.889E-05
 LARGEST SCALED RESIDUAL FORCE      8.314E-13   AT NODE       1642   DOF  1
   INSTANCE: PART-1-1                                                                        
  CORRESPONDING RESIDUAL FORCE      8.314E-13
 LARGEST INCREMENT OF DISP.         2.070E-05   AT NODE        735   DOF  1
   INSTANCE: PART-1-1                                                                        
 LARGEST CORRECTION TO DISP.       -6.811E-10   AT NODE       1886   DOF  2
   INSTANCE: PART-1-1                                                                        
          THE FORCE     EQUILIBRIUM EQUATIONS HAVE CONVERGED

 AVERAGE HEAT FLUX                  7.289E+12   TIME AVG. HEAT FLUX   6.176E+12
 LARGEST RESIDUAL HEAT FLUX         3.801E+04   AT NODE         20   DOF 11
   INSTANCE: PART-1-1                                                                        
 LARGEST INCREMENT OF TEMP.         1.053E+10   AT NODE         26   DOF 11
   INSTANCE: PART-1-1                                                                        
 LARGEST CORRECTION TO TEMP.        1.720E+04   AT NODE        445   DOF 11
   INSTANCE: PART-1-1                                                                        
          THE HEAT FLUX EQUILIBRIUM RESPONSE WAS LINEAR IN THIS INCREMENT

 MAXIMUM NON-PRESCRIBED INCREMENT IN TEMPERATURE IS   3.797E+04
          TIME INCREMENT MAY NOW INCREASE TO    8.000E-04

 ITERATION SUMMARY FOR THE INCREMENT:   1 TOTAL ITERATIONS, OF WHICH
   0 ARE SEVERE DISCONTINUITY ITERATIONS AND  1 ARE EQUILIBRIUM ITERATIONS.

 TIME INCREMENT COMPLETED  4.000E-04,  FRACTION OF STEP COMPLETED  9.000E-04
 STEP TIME COMPLETED       9.000E-04,  TOTAL TIME COMPLETED        9.000E-04


  INCREMENT     6 STARTS. ATTEMPT NUMBER  1, TIME INCREMENT  8.000E-04
 
	UNSYMMETRIC NEW DIRECT SPARSE SOLVER RUNNING ON
 	1 HOST x 1 MPI RANK PER HOST x 1 THREAD PER RANK
        NUMBER OF EQUATIONS:  8178
        NUMBER OF RHS:        1
        NUMBER OF FLOPS:      2.590e+09
        SOLVER ELAPSED TIME:  85ms

               CONVERGENCE CHECKS FOR EQUILIBRIUM ITERATION     1


 AVERAGE FORCE                      1.227E-04   TIME AVG. FORCE       4.453E-05
 LARGEST SCALED RESIDUAL FORCE      6.650E-12   AT NODE       1642   DOF  1
   INSTANCE: PART-1-1                                                                        
  CORRESPONDING RESIDUAL FORCE      6.650E-12
 LARGEST INCREMENT OF DISP.         4.141E-05   AT NODE        735   DOF  1
   INSTANCE: PART-1-1                                                                        
 LARGEST CORRECTION TO DISP.       -2.724E-09   AT NODE       1886   DOF  2
   INSTANCE: PART-1-1                                                                        
          THE FORCE     EQUILIBRIUM EQUATIONS HAVE CONVERGED

 AVERAGE HEAT FLUX                  6.744E+12   TIME AVG. HEAT FLUX   6.270E+12
 LARGEST RESIDUAL HEAT FLUX         7.601E+04   AT NODE         20   DOF 11
   INSTANCE: PART-1-1                                                                        
 LARGEST INCREMENT OF TEMP.         2.106E+10   AT NODE         26   DOF 11
   INSTANCE: PART-1-1                                                                        
 LARGEST CORRECTION TO TEMP.        7.182E+04   AT NODE        445   DOF 11
   INSTANCE: PART-1-1                                                                        
          THE HEAT FLUX EQUILIBRIUM EQUATIONS HAVE CONVERGED

 MAXIMUM NON-PRESCRIBED INCREMENT IN TEMPERATURE IS   1.478E+05
          TIME INCREMENT MAY NOW INCREASE TO    1.600E-03

 ITERATION SUMMARY FOR THE INCREMENT:   1 TOTAL ITERATIONS, OF WHICH
   0 ARE SEVERE DISCONTINUITY ITERATIONS AND  1 ARE EQUILIBRIUM ITERATIONS.

 TIME INCREMENT COMPLETED  8.000E-04,  FRACTION OF STEP COMPLETED  1.700E-03
 STEP TIME COMPLETED       1.700E-03,  TOTAL TIME COMPLETED        1.700E-03


  INCREMENT     7 STARTS. ATTEMPT NUMBER  1, TIME INCREMENT  1.600E-03
 
	UNSYMMETRIC NEW DIRECT SPARSE SOLVER RUNNING ON
 	1 HOST x 1 MPI RANK PER HOST x 1 THREAD PER RANK
        NUMBER OF EQUATIONS:  8178
        NUMBER OF RHS:        1
        NUMBER OF FLOPS:      2.590e+09
        SOLVER ELAPSED TIME:  86ms

               CONVERGENCE CHECKS FOR EQUILIBRIUM ITERATION     1


 AVERAGE FORCE                      2.382E-04   TIME AVG. FORCE       7.219E-05
 LARGEST SCALED RESIDUAL FORCE      5.317E-11   AT NODE       1642   DOF  1
   INSTANCE: PART-1-1                                                                        
  CORRESPONDING RESIDUAL FORCE      5.317E-11
 LARGEST INCREMENT OF DISP.         8.282E-05   AT NODE        735   DOF  1
   INSTANCE: PART-1-1                                                                        
 LARGEST CORRECTION TO DISP.       -1.089E-08   AT NODE       1886   DOF  2
   INSTANCE: PART-1-1                                                                        
          THE FORCE     EQUILIBRIUM EQUATIONS HAVE CONVERGED

 AVERAGE HEAT FLUX                  5.650E+12   TIME AVG. HEAT FLUX   6.182E+12
 LARGEST RESIDUAL HEAT FLUX         1.520E+05   AT NODE         20   DOF 11
   INSTANCE: PART-1-1                                                                        
 LARGEST INCREMENT OF TEMP.         4.212E+10   AT NODE         26   DOF 11
   INSTANCE: PART-1-1                                                                        
 LARGEST CORRECTION TO TEMP.        3.100E+05   AT NODE        445   DOF 11
   INSTANCE: PART-1-1                                                                        
          THE HEAT FLUX EQUILIBRIUM EQUATIONS HAVE CONVERGED

 MAXIMUM NON-PRESCRIBED INCREMENT IN TEMPERATURE IS   6.055E+05
          TIME INCREMENT MAY NOW INCREASE TO    3.200E-03

 ITERATION SUMMARY FOR THE INCREMENT:   1 TOTAL ITERATIONS, OF WHICH
   0 ARE SEVERE DISCONTINUITY ITERATIONS AND  1 ARE EQUILIBRIUM ITERATIONS.

 TIME INCREMENT COMPLETED  1.600E-03,  FRACTION OF STEP COMPLETED  3.300E-03
 STEP TIME COMPLETED       3.300E-03,  TOTAL TIME COMPLETED        3.300E-03


  INCREMENT     8 STARTS. ATTEMPT NUMBER  1, TIME INCREMENT  3.200E-03
 
	UNSYMMETRIC NEW DIRECT SPARSE SOLVER RUNNING ON
 	1 HOST x 1 MPI RANK PER HOST x 1 THREAD PER RANK
        NUMBER OF EQUATIONS:  8178
        NUMBER OF RHS:        1
        NUMBER OF FLOPS:      2.590e+09
        SOLVER ELAPSED TIME:  85ms

               CONVERGENCE CHECKS FOR EQUILIBRIUM ITERATION     1


 AVERAGE FORCE                      4.690E-04   TIME AVG. FORCE       1.218E-04
 LARGEST SCALED RESIDUAL FORCE      4.249E-10   AT NODE       1642   DOF  1
   INSTANCE: PART-1-1                                                                        
  CORRESPONDING RESIDUAL FORCE      4.249E-10
 LARGEST INCREMENT OF DISP.         1.656E-04   AT NODE        735   DOF  1
   INSTANCE: PART-1-1                                                                        
 LARGEST CORRECTION TO DISP.       -4.356E-08   AT NODE       1886   DOF  2
   INSTANCE: PART-1-1                                                                        
          THE FORCE     EQUILIBRIUM EQUATIONS HAVE CONVERGED

 AVERAGE HEAT FLUX                  3.116E+12   TIME AVG. HEAT FLUX   5.799E+12
 LARGEST RESIDUAL HEAT FLUX         3.040E+05   AT NODE         20   DOF 11
   INSTANCE: PART-1-1                                                                        
 LARGEST INCREMENT OF TEMP.         8.424E+10   AT NODE         26   DOF 11
   INSTANCE: PART-1-1                                                                        
 LARGEST CORRECTION TO TEMP.        1.404E+06   AT NODE        445   DOF 11
   INSTANCE: PART-1-1                                                                        
          THE HEAT FLUX EQUILIBRIUM EQUATIONS HAVE CONVERGED

 MAXIMUM NON-PRESCRIBED INCREMENT IN TEMPERATURE IS   2.615E+06
          TIME INCREMENT MAY NOW INCREASE TO    6.400E-03

 ITERATION SUMMARY FOR THE INCREMENT:   1 TOTAL ITERATIONS, OF WHICH
   0 ARE SEVERE DISCONTINUITY ITERATIONS AND  1 ARE EQUILIBRIUM ITERATIONS.

 TIME INCREMENT COMPLETED  3.200E-03,  FRACTION OF STEP COMPLETED  6.500E-03
 STEP TIME COMPLETED       6.500E-03,  TOTAL TIME COMPLETED        6.500E-03


  INCREMENT     9 STARTS. ATTEMPT NUMBER  1, TIME INCREMENT  6.400E-03
 
	UNSYMMETRIC NEW DIRECT SPARSE SOLVER RUNNING ON
 	1 HOST x 1 MPI RANK PER HOST x 1 THREAD PER RANK
        NUMBER OF EQUATIONS:  8178
        NUMBER OF RHS:        1
        NUMBER OF FLOPS:      2.590e+09
        SOLVER ELAPSED TIME:  86ms

               CONVERGENCE CHECKS FOR EQUILIBRIUM ITERATION     1


 AVERAGE FORCE                      9.305E-04   TIME AVG. FORCE       2.117E-04
 LARGEST SCALED RESIDUAL FORCE      3.393E-09   AT NODE       1642   DOF  1
   INSTANCE: PART-1-1                                                                        
  CORRESPONDING RESIDUAL FORCE      3.393E-09
 LARGEST INCREMENT OF DISP.         3.313E-04   AT NODE        735   DOF  1
   INSTANCE: PART-1-1                                                                        
 LARGEST CORRECTION TO DISP.       -1.741E-07   AT NODE       1886   DOF  2
   INSTANCE: PART-1-1                                                                        
          THE FORCE     EQUILIBRIUM EQUATIONS HAVE CONVERGED

 AVERAGE HEAT FLUX                  1.340E+12   TIME AVG. HEAT FLUX   5.303E+12
 LARGEST RESIDUAL HEAT FLUX         6.080E+05   AT NODE         20   DOF 11
   INSTANCE: PART-1-1                                                                        
 LARGEST INCREMENT OF TEMP.         1.685E+11   AT NODE         26   DOF 11
   INSTANCE: PART-1-1                                                                        
 LARGEST CORRECTION TO TEMP.        6.723E+06   AT NODE        445   DOF 11
   INSTANCE: PART-1-1                                                                        
          THE HEAT FLUX EQUILIBRIUM EQUATIONS HAVE CONVERGED

 MAXIMUM NON-PRESCRIBED INCREMENT IN TEMPERATURE IS   1.195E+07
          TIME INCREMENT MAY NOW INCREASE TO    1.000E-02

 ITERATION SUMMARY FOR THE INCREMENT:   1 TOTAL ITERATIONS, OF WHICH
   0 ARE SEVERE DISCONTINUITY ITERATIONS AND  1 ARE EQUILIBRIUM ITERATIONS.

 TIME INCREMENT COMPLETED  6.400E-03,  FRACTION OF STEP COMPLETED  1.290E-02
 STEP TIME COMPLETED       1.290E-02,  TOTAL TIME COMPLETED        1.290E-02


  INCREMENT    10 STARTS. ATTEMPT NUMBER  1, TIME INCREMENT  1.000E-02
 
	UNSYMMETRIC NEW DIRECT SPARSE SOLVER RUNNING ON
 	1 HOST x 1 MPI RANK PER HOST x 1 THREAD PER RANK
        NUMBER OF EQUATIONS:  8178
        NUMBER OF RHS:        1
        NUMBER OF FLOPS:      2.590e+09
        SOLVER ELAPSED TIME:  85ms

               CONVERGENCE CHECKS FOR EQUILIBRIUM ITERATION     1


 AVERAGE FORCE                      1.651E-03   TIME AVG. FORCE       3.556E-04
 LARGEST SCALED RESIDUAL FORCE      1.357E-08   AT NODE       1642   DOF  1
   INSTANCE: PART-1-1                                                                        
  CORRESPONDING RESIDUAL FORCE      1.357E-08
 LARGEST INCREMENT OF DISP.         5.176E-04   AT NODE        735   DOF  1
   INSTANCE: PART-1-1                                                                        
 LARGEST CORRECTION TO DISP.       -4.752E-07   AT NODE       1886   DOF  2
   INSTANCE: PART-1-1                                                                        
          THE FORCE     EQUILIBRIUM EQUATIONS HAVE CONVERGED

 AVERAGE HEAT FLUX                  7.289E+11   TIME AVG. HEAT FLUX   4.846E+12
 LARGEST RESIDUAL HEAT FLUX         9.497E+05   AT NODE         20   DOF 11
   INSTANCE: PART-1-1                                                                        
 LARGEST INCREMENT OF TEMP.         2.632E+11   AT NODE         26   DOF 11
   INSTANCE: PART-1-1                                                                        
 LARGEST CORRECTION TO TEMP.        2.007E+07   AT NODE        445   DOF 11
   INSTANCE: PART-1-1                                                                        
          THE HEAT FLUX EQUILIBRIUM EQUATIONS HAVE CONVERGED

 MAXIMUM NON-PRESCRIBED INCREMENT IN TEMPERATURE IS   3.875E+07

 ITERATION SUMMARY FOR THE INCREMENT:   1 TOTAL ITERATIONS, OF WHICH
   0 ARE SEVERE DISCONTINUITY ITERATIONS AND  1 ARE EQUILIBRIUM ITERATIONS.

 TIME INCREMENT COMPLETED  1.000E-02,  FRACTION OF STEP COMPLETED  2.290E-02
 STEP TIME COMPLETED       2.290E-02,  TOTAL TIME COMPLETED        2.290E-02


  INCREMENT    11 STARTS. ATTEMPT NUMBER  1, TIME INCREMENT  1.000E-02
 
	UNSYMMETRIC NEW DIRECT SPARSE SOLVER RUNNING ON
 	1 HOST x 1 MPI RANK PER HOST x 1 THREAD PER RANK
        NUMBER OF EQUATIONS:  8178
        NUMBER OF RHS:        1
        NUMBER OF FLOPS:      2.590e+09
        SOLVER ELAPSED TIME:  87ms

               CONVERGENCE CHECKS FOR EQUILIBRIUM ITERATION     1


 AVERAGE FORCE                      2.372E-03   TIME AVG. FORCE       5.389E-04
 LARGEST SCALED RESIDUAL FORCE      1.522E-08   AT NODE       1642   DOF  1
   INSTANCE: PART-1-1                                                                        
  CORRESPONDING RESIDUAL FORCE      1.522E-08
 LARGEST INCREMENT OF DISP.         5.176E-04   AT NODE        735   DOF  1
   INSTANCE: PART-1-1                                                                        
 LARGEST CORRECTION TO DISP.       -6.042E-07   AT NODE       1886   DOF  2
   INSTANCE: PART-1-1                                                                        
          THE FORCE     EQUILIBRIUM EQUATIONS HAVE CONVERGED

 AVERAGE HEAT FLUX                  5.169E+11   TIME AVG. HEAT FLUX   4.452E+12
 LARGEST RESIDUAL HEAT FLUX         9.494E+05   AT NODE         20   DOF 11
   INSTANCE: PART-1-1                                                                        
 LARGEST INCREMENT OF TEMP.         2.632E+11   AT NODE         26   DOF 11
   INSTANCE: PART-1-1                                                                        
 LARGEST CORRECTION TO TEMP.        2.347E+07   AT NODE        445   DOF 11
   INSTANCE: PART-1-1                                                                        
          THE HEAT FLUX EQUILIBRIUM EQUATIONS HAVE CONVERGED

 MAXIMUM NON-PRESCRIBED INCREMENT IN TEMPERATURE IS   6.222E+07

 ITERATION SUMMARY FOR THE INCREMENT:   1 TOTAL ITERATIONS, OF WHICH
   0 ARE SEVERE DISCONTINUITY ITERATIONS AND  1 ARE EQUILIBRIUM ITERATIONS.

 TIME INCREMENT COMPLETED  1.000E-02,  FRACTION OF STEP COMPLETED  3.290E-02
 STEP TIME COMPLETED       3.290E-02,  TOTAL TIME COMPLETED        3.290E-02


  INCREMENT    12 STARTS. ATTEMPT NUMBER  1, TIME INCREMENT  1.000E-02
 
	UNSYMMETRIC NEW DIRECT SPARSE SOLVER RUNNING ON
 	1 HOST x 1 MPI RANK PER HOST x 1 THREAD PER RANK
        NUMBER OF EQUATIONS:  8178
        NUMBER OF RHS:        1
        NUMBER OF FLOPS:      2.590e+09
        SOLVER ELAPSED TIME:  86ms

               CONVERGENCE CHECKS FOR EQUILIBRIUM ITERATION     1


 AVERAGE FORCE                      3.091E-03   TIME AVG. FORCE       7.516E-04
 LARGEST SCALED RESIDUAL FORCE      1.513E-08   AT NODE       1642   DOF  1
   INSTANCE: PART-1-1                                                                        
  CORRESPONDING RESIDUAL FORCE      1.513E-08
 LARGEST INCREMENT OF DISP.         5.176E-04   AT NODE        735   DOF  1
   INSTANCE: PART-1-1                                                                        
 LARGEST CORRECTION TO DISP.       -6.027E-07   AT NODE       1886   DOF  2
   INSTANCE: PART-1-1                                                                        
          THE FORCE     EQUILIBRIUM EQUATIONS HAVE CONVERGED

 AVERAGE HEAT FLUX                  3.993E+11   TIME AVG. HEAT FLUX   4.114E+12
 LARGEST RESIDUAL HEAT FLUX         1.278E+06   AT NODE        445   DOF 11
   INSTANCE: PART-1-1                                                                        
 LARGEST INCREMENT OF TEMP.         2.632E+11   AT NODE         26   DOF 11
   INSTANCE: PART-1-1                                                                        
 LARGEST CORRECTION TO TEMP.        2.602E+07   AT NODE        445   DOF 11
   INSTANCE: PART-1-1                                                                        
          THE HEAT FLUX EQUILIBRIUM EQUATIONS HAVE CONVERGED

 MAXIMUM NON-PRESCRIBED INCREMENT IN TEMPERATURE IS   8.824E+07

 ITERATION SUMMARY FOR THE INCREMENT:   1 TOTAL ITERATIONS, OF WHICH
   0 ARE SEVERE DISCONTINUITY ITERATIONS AND  1 ARE EQUILIBRIUM ITERATIONS.

 TIME INCREMENT COMPLETED  1.000E-02,  FRACTION OF STEP COMPLETED  4.290E-02
 STEP TIME COMPLETED       4.290E-02,  TOTAL TIME COMPLETED        4.290E-02


  INCREMENT    13 STARTS. ATTEMPT NUMBER  1, TIME INCREMENT  1.000E-02
 
	UNSYMMETRIC NEW DIRECT SPARSE SOLVER RUNNING ON
 	1 HOST x 1 MPI RANK PER HOST x 1 THREAD PER RANK
        NUMBER OF EQUATIONS:  8178
        NUMBER OF RHS:        1
        NUMBER OF FLOPS:      2.590e+09
        SOLVER ELAPSED TIME:  85ms

               CONVERGENCE CHECKS FOR EQUILIBRIUM ITERATION     1


 AVERAGE FORCE                      3.811E-03   TIME AVG. FORCE       9.869E-04
 LARGEST SCALED RESIDUAL FORCE      1.502E-08   AT NODE       1642   DOF  1
   INSTANCE: PART-1-1                                                                        
  CORRESPONDING RESIDUAL FORCE      1.502E-08
 LARGEST INCREMENT OF DISP.         5.176E-04   AT NODE        735   DOF  1
   INSTANCE: PART-1-1                                                                        
 LARGEST CORRECTION TO DISP.       -6.011E-07   AT NODE       1886   DOF  2
   INSTANCE: PART-1-1                                                                        
          THE FORCE     EQUILIBRIUM EQUATIONS HAVE CONVERGED

 AVERAGE HEAT FLUX                  3.227E+11   TIME AVG. HEAT FLUX   3.823E+12
 LARGEST RESIDUAL HEAT FLUX         1.667E+06   AT NODE        445   DOF 11
   INSTANCE: PART-1-1                                                                        
 LARGEST INCREMENT OF TEMP.         2.632E+11   AT NODE         26   DOF 11
   INSTANCE: PART-1-1                                                                        
 LARGEST CORRECTION TO TEMP.        2.796E+07   AT NODE        445   DOF 11
   INSTANCE: PART-1-1                                                                        
          THE HEAT FLUX EQUILIBRIUM EQUATIONS HAVE CONVERGED

 MAXIMUM NON-PRESCRIBED INCREMENT IN TEMPERATURE IS   1.162E+08

 ITERATION SUMMARY FOR THE INCREMENT:   1 TOTAL ITERATIONS, OF WHICH
   0 ARE SEVERE DISCONTINUITY ITERATIONS AND  1 ARE EQUILIBRIUM ITERATIONS.

 TIME INCREMENT COMPLETED  1.000E-02,  FRACTION OF STEP COMPLETED  5.290E-02
 STEP TIME COMPLETED       5.290E-02,  TOTAL TIME COMPLETED        5.290E-02


  INCREMENT    14 STARTS. ATTEMPT NUMBER  1, TIME INCREMENT  1.000E-02
 
	UNSYMMETRIC NEW DIRECT SPARSE SOLVER RUNNING ON
 	1 HOST x 1 MPI RANK PER HOST x 1 THREAD PER RANK
        NUMBER OF EQUATIONS:  8178
        NUMBER OF RHS:        1
        NUMBER OF FLOPS:      2.590e+09
        SOLVER ELAPSED TIME:  86ms

               CONVERGENCE CHECKS FOR EQUILIBRIUM ITERATION     1


 AVERAGE FORCE                      4.531E-03   TIME AVG. FORCE       1.240E-03
 LARGEST SCALED RESIDUAL FORCE      1.491E-08   AT NODE       1642   DOF  1
   INSTANCE: PART-1-1                                                                        
  CORRESPONDING RESIDUAL FORCE      1.491E-08
 LARGEST INCREMENT OF DISP.         5.176E-04   AT NODE        735   DOF  1
   INSTANCE: PART-1-1                                                                        
 LARGEST CORRECTION TO DISP.       -5.995E-07   AT NODE       1886   DOF  2
   INSTANCE: PART-1-1                                                                        
          THE FORCE     EQUILIBRIUM EQUATIONS HAVE CONVERGED

 AVERAGE HEAT FLUX                  2.716E+11   TIME AVG. HEAT FLUX   3.569E+12
 LARGEST RESIDUAL HEAT FLUX         2.070E+06   AT NODE        445   DOF 11
   INSTANCE: PART-1-1                                                                        
 LARGEST INCREMENT OF TEMP.         2.632E+11   AT NODE         26   DOF 11
   INSTANCE: PART-1-1                                                                        
 LARGEST CORRECTION TO TEMP.        2.944E+07   AT NODE        445   DOF 11
   INSTANCE: PART-1-1                                                                        
          THE HEAT FLUX EQUILIBRIUM EQUATIONS HAVE CONVERGED

 MAXIMUM NON-PRESCRIBED INCREMENT IN TEMPERATURE IS   1.456E+08

 ITERATION SUMMARY FOR THE INCREMENT:   1 TOTAL ITERATIONS, OF WHICH
   0 ARE SEVERE DISCONTINUITY ITERATIONS AND  1 ARE EQUILIBRIUM ITERATIONS.

 TIME INCREMENT COMPLETED  1.000E-02,  FRACTION OF STEP COMPLETED  6.290E-02
 STEP TIME COMPLETED       6.290E-02,  TOTAL TIME COMPLETED        6.290E-02


  INCREMENT    15 STARTS. ATTEMPT NUMBER  1, TIME INCREMENT  1.000E-02
 
	UNSYMMETRIC NEW DIRECT SPARSE SOLVER RUNNING ON
 	1 HOST x 1 MPI RANK PER HOST x 1 THREAD PER RANK
        NUMBER OF EQUATIONS:  8178
        NUMBER OF RHS:        1
        NUMBER OF FLOPS:      2.590e+09
        SOLVER ELAPSED TIME:  87ms

               CONVERGENCE CHECKS FOR EQUILIBRIUM ITERATION     1


 AVERAGE FORCE                      5.249E-03   TIME AVG. FORCE       1.507E-03
 LARGEST SCALED RESIDUAL FORCE      1.480E-08   AT NODE       1642   DOF  1
   INSTANCE: PART-1-1                                                                        
  CORRESPONDING RESIDUAL FORCE      1.480E-08
 LARGEST INCREMENT OF DISP.         5.176E-04   AT NODE        735   DOF  1
   INSTANCE: PART-1-1                                                                        
 LARGEST CORRECTION TO DISP.       -5.978E-07   AT NODE       1886   DOF  2
   INSTANCE: PART-1-1                                                                        
          THE FORCE     EQUILIBRIUM EQUATIONS HAVE CONVERGED

 AVERAGE HEAT FLUX                  2.354E+11   TIME AVG. HEAT FLUX   3.347E+12
 LARGEST RESIDUAL HEAT FLUX         2.482E+06   AT NODE        445   DOF 11
   INSTANCE: PART-1-1                                                                        
 LARGEST INCREMENT OF TEMP.         2.632E+11   AT NODE         26   DOF 11
   INSTANCE: PART-1-1                                                                        
 LARGEST CORRECTION TO TEMP.        3.058E+07   AT NODE        445   DOF 11
   INSTANCE: PART-1-1                                                                        
          THE HEAT FLUX EQUILIBRIUM EQUATIONS HAVE CONVERGED

 MAXIMUM NON-PRESCRIBED INCREMENT IN TEMPERATURE IS   1.762E+08

 ITERATION SUMMARY FOR THE INCREMENT:   1 TOTAL ITERATIONS, OF WHICH
   0 ARE SEVERE DISCONTINUITY ITERATIONS AND  1 ARE EQUILIBRIUM ITERATIONS.

 TIME INCREMENT COMPLETED  1.000E-02,  FRACTION OF STEP COMPLETED  7.290E-02
 STEP TIME COMPLETED       7.290E-02,  TOTAL TIME COMPLETED        7.290E-02


  INCREMENT    16 STARTS. ATTEMPT NUMBER  1, TIME INCREMENT  1.000E-02
 
	UNSYMMETRIC NEW DIRECT SPARSE SOLVER RUNNING ON
 	1 HOST x 1 MPI RANK PER HOST x 1 THREAD PER RANK
        NUMBER OF EQUATIONS:  8178
        NUMBER OF RHS:        1
        NUMBER OF FLOPS:      2.590e+09
        SOLVER ELAPSED TIME:  90ms

               CONVERGENCE CHECKS FOR EQUILIBRIUM ITERATION     1


 AVERAGE FORCE                      5.967E-03   TIME AVG. FORCE       1.786E-03
 LARGEST SCALED RESIDUAL FORCE      1.467E-08   AT NODE       1642   DOF  1
   INSTANCE: PART-1-1                                                                        
  CORRESPONDING RESIDUAL FORCE      1.467E-08
 LARGEST INCREMENT OF DISP.         5.176E-04   AT NODE        735   DOF  1
   INSTANCE: PART-1-1                                                                        
 LARGEST CORRECTION TO DISP.       -5.962E-07   AT NODE       1886   DOF  2
   INSTANCE: PART-1-1                                                                        
          THE FORCE     EQUILIBRIUM EQUATIONS HAVE CONVERGED

 AVERAGE HEAT FLUX                  2.102E+11   TIME AVG. HEAT FLUX   3.151E+12
 LARGEST RESIDUAL HEAT FLUX         2.901E+06   AT NODE        445   DOF 11
   INSTANCE: PART-1-1                                                                        
 LARGEST INCREMENT OF TEMP.         2.632E+11   AT NODE         26   DOF 11
   INSTANCE: PART-1-1                                                                        
 LARGEST CORRECTION TO TEMP.        3.146E+07   AT NODE        445   DOF 11
   INSTANCE: PART-1-1                                                                        
          THE HEAT FLUX EQUILIBRIUM EQUATIONS HAVE CONVERGED

 MAXIMUM NON-PRESCRIBED INCREMENT IN TEMPERATURE IS   2.077E+08

 ITERATION SUMMARY FOR THE INCREMENT:   1 TOTAL ITERATIONS, OF WHICH
   0 ARE SEVERE DISCONTINUITY ITERATIONS AND  1 ARE EQUILIBRIUM ITERATIONS.

 TIME INCREMENT COMPLETED  1.000E-02,  FRACTION OF STEP COMPLETED  8.290E-02
 STEP TIME COMPLETED       8.290E-02,  TOTAL TIME COMPLETED        8.290E-02


  INCREMENT    17 STARTS. ATTEMPT NUMBER  1, TIME INCREMENT  1.000E-02
 
	UNSYMMETRIC NEW DIRECT SPARSE SOLVER RUNNING ON
 	1 HOST x 1 MPI RANK PER HOST x 1 THREAD PER RANK
        NUMBER OF EQUATIONS:  8178
        NUMBER OF RHS:        1
        NUMBER OF FLOPS:      2.590e+09
        SOLVER ELAPSED TIME:  88ms

               CONVERGENCE CHECKS FOR EQUILIBRIUM ITERATION     1


 AVERAGE FORCE                      6.685E-03   TIME AVG. FORCE       2.074E-03
 LARGEST SCALED RESIDUAL FORCE      1.453E-08   AT NODE       1642   DOF  1
   INSTANCE: PART-1-1                                                                        
  CORRESPONDING RESIDUAL FORCE      1.453E-08
 LARGEST INCREMENT OF DISP.         5.175E-04   AT NODE        735   DOF  1
   INSTANCE: PART-1-1                                                                        
 LARGEST CORRECTION TO DISP.       -5.946E-07   AT NODE       1886   DOF  2
   INSTANCE: PART-1-1                                                                        
          THE FORCE     EQUILIBRIUM EQUATIONS HAVE CONVERGED

 AVERAGE HEAT FLUX                  1.918E+11   TIME AVG. HEAT FLUX   2.977E+12
 LARGEST RESIDUAL HEAT FLUX         3.325E+06   AT NODE        445   DOF 11
   INSTANCE: PART-1-1                                                                        
 LARGEST INCREMENT OF TEMP.         2.632E+11   AT NODE         26   DOF 11
   INSTANCE: PART-1-1                                                                        
 LARGEST CORRECTION TO TEMP.        3.216E+07   AT NODE        445   DOF 11
   INSTANCE: PART-1-1                                                                        
          THE HEAT FLUX EQUILIBRIUM EQUATIONS HAVE CONVERGED

 MAXIMUM NON-PRESCRIBED INCREMENT IN TEMPERATURE IS   2.398E+08

 ITERATION SUMMARY FOR THE INCREMENT:   1 TOTAL ITERATIONS, OF WHICH
   0 ARE SEVERE DISCONTINUITY ITERATIONS AND  1 ARE EQUILIBRIUM ITERATIONS.

 TIME INCREMENT COMPLETED  1.000E-02,  FRACTION OF STEP COMPLETED  9.290E-02
 STEP TIME COMPLETED       9.290E-02,  TOTAL TIME COMPLETED        9.290E-02


  INCREMENT    18 STARTS. ATTEMPT NUMBER  1, TIME INCREMENT  1.000E-02
 
	UNSYMMETRIC NEW DIRECT SPARSE SOLVER RUNNING ON
 	1 HOST x 1 MPI RANK PER HOST x 1 THREAD PER RANK
        NUMBER OF EQUATIONS:  8178
        NUMBER OF RHS:        1
        NUMBER OF FLOPS:      2.590e+09
        SOLVER ELAPSED TIME:  87ms

               CONVERGENCE CHECKS FOR EQUILIBRIUM ITERATION     1


 AVERAGE FORCE                      7.403E-03   TIME AVG. FORCE       2.370E-03
 LARGEST SCALED RESIDUAL FORCE      1.439E-08   AT NODE       1642   DOF  1
   INSTANCE: PART-1-1                                                                        
  CORRESPONDING RESIDUAL FORCE      1.439E-08
 LARGEST INCREMENT OF DISP.         5.175E-04   AT NODE        735   DOF  1
   INSTANCE: PART-1-1                                                                        
 LARGEST CORRECTION TO DISP.       -5.929E-07   AT NODE       1886   DOF  2
   INSTANCE: PART-1-1                                                                        
          THE FORCE     EQUILIBRIUM EQUATIONS HAVE CONVERGED

 AVERAGE HEAT FLUX                  1.767E+11   TIME AVG. HEAT FLUX   2.821E+12
 LARGEST RESIDUAL HEAT FLUX         3.752E+06   AT NODE        445   DOF 11
   INSTANCE: PART-1-1                                                                        
 LARGEST INCREMENT OF TEMP.         2.632E+11   AT NODE         26   DOF 11
   INSTANCE: PART-1-1                                                                        
 LARGEST CORRECTION TO TEMP.        3.270E+07   AT NODE        445   DOF 11
   INSTANCE: PART-1-1                                                                        
          THE HEAT FLUX EQUILIBRIUM EQUATIONS HAVE CONVERGED

 MAXIMUM NON-PRESCRIBED INCREMENT IN TEMPERATURE IS   2.725E+08

 ITERATION SUMMARY FOR THE INCREMENT:   1 TOTAL ITERATIONS, OF WHICH
   0 ARE SEVERE DISCONTINUITY ITERATIONS AND  1 ARE EQUILIBRIUM ITERATIONS.

 TIME INCREMENT COMPLETED  1.000E-02,  FRACTION OF STEP COMPLETED  0.103    
 STEP TIME COMPLETED       0.103    ,  TOTAL TIME COMPLETED        0.103    


  INCREMENT    19 STARTS. ATTEMPT NUMBER  1, TIME INCREMENT  1.000E-02
 
	UNSYMMETRIC NEW DIRECT SPARSE SOLVER RUNNING ON
 	1 HOST x 1 MPI RANK PER HOST x 1 THREAD PER RANK
        NUMBER OF EQUATIONS:  8178
        NUMBER OF RHS:        1
        NUMBER OF FLOPS:      2.590e+09
        SOLVER ELAPSED TIME:  85ms

               CONVERGENCE CHECKS FOR EQUILIBRIUM ITERATION     1


 AVERAGE FORCE                      8.120E-03   TIME AVG. FORCE       2.673E-03
 LARGEST SCALED RESIDUAL FORCE      1.424E-08   AT NODE       1642   DOF  1
   INSTANCE: PART-1-1                                                                        
  CORRESPONDING RESIDUAL FORCE      1.424E-08
 LARGEST INCREMENT OF DISP.         5.175E-04   AT NODE        735   DOF  1
   INSTANCE: PART-1-1                                                                        
 LARGEST CORRECTION TO DISP.       -5.913E-07   AT NODE       1886   DOF  2
   INSTANCE: PART-1-1                                                                        
          THE FORCE     EQUILIBRIUM EQUATIONS HAVE CONVERGED

 AVERAGE HEAT FLUX                  1.650E+11   TIME AVG. HEAT FLUX   2.681E+12
 LARGEST RESIDUAL HEAT FLUX         4.182E+06   AT NODE        445   DOF 11
   INSTANCE: PART-1-1                                                                        
 LARGEST INCREMENT OF TEMP.         2.632E+11   AT NODE         26   DOF 11
   INSTANCE: PART-1-1                                                                        
 LARGEST CORRECTION TO TEMP.        3.314E+07   AT NODE        445   DOF 11
   INSTANCE: PART-1-1                                                                        
          THE HEAT FLUX EQUILIBRIUM EQUATIONS HAVE CONVERGED

 MAXIMUM NON-PRESCRIBED INCREMENT IN TEMPERATURE IS   3.057E+08

 ITERATION SUMMARY FOR THE INCREMENT:   1 TOTAL ITERATIONS, OF WHICH
   0 ARE SEVERE DISCONTINUITY ITERATIONS AND  1 ARE EQUILIBRIUM ITERATIONS.

 TIME INCREMENT COMPLETED  1.000E-02,  FRACTION OF STEP COMPLETED  0.113    
 STEP TIME COMPLETED       0.113    ,  TOTAL TIME COMPLETED        0.113    


  INCREMENT    20 STARTS. ATTEMPT NUMBER  1, TIME INCREMENT  1.000E-02
 
	UNSYMMETRIC NEW DIRECT SPARSE SOLVER RUNNING ON
 	1 HOST x 1 MPI RANK PER HOST x 1 THREAD PER RANK
        NUMBER OF EQUATIONS:  8178
        NUMBER OF RHS:        1
        NUMBER OF FLOPS:      2.590e+09
        SOLVER ELAPSED TIME:  85ms

               CONVERGENCE CHECKS FOR EQUILIBRIUM ITERATION     1


 AVERAGE FORCE                      8.836E-03   TIME AVG. FORCE       2.981E-03
 LARGEST SCALED RESIDUAL FORCE      1.407E-08   AT NODE       1642   DOF  1
   INSTANCE: PART-1-1                                                                        
  CORRESPONDING RESIDUAL FORCE      1.407E-08
 LARGEST INCREMENT OF DISP.         5.175E-04   AT NODE        735   DOF  1
   INSTANCE: PART-1-1                                                                        
 LARGEST CORRECTION TO DISP.       -5.897E-07   AT NODE       1886   DOF  2
   INSTANCE: PART-1-1                                                                        
          THE FORCE     EQUILIBRIUM EQUATIONS HAVE CONVERGED

 AVERAGE HEAT FLUX                  1.548E+11   TIME AVG. HEAT FLUX   2.555E+12
 LARGEST RESIDUAL HEAT FLUX         4.614E+06   AT NODE        445   DOF 11
   INSTANCE: PART-1-1                                                                        
 LARGEST INCREMENT OF TEMP.         2.632E+11   AT NODE         26   DOF 11
   INSTANCE: PART-1-1                                                                        
 LARGEST CORRECTION TO TEMP.        3.350E+07   AT NODE        445   DOF 11
   INSTANCE: PART-1-1                                                                        
          THE HEAT FLUX EQUILIBRIUM EQUATIONS HAVE CONVERGED

 MAXIMUM NON-PRESCRIBED INCREMENT IN TEMPERATURE IS   3.392E+08

 ITERATION SUMMARY FOR THE INCREMENT:   1 TOTAL ITERATIONS, OF WHICH
   0 ARE SEVERE DISCONTINUITY ITERATIONS AND  1 ARE EQUILIBRIUM ITERATIONS.

 TIME INCREMENT COMPLETED  1.000E-02,  FRACTION OF STEP COMPLETED  0.123    
 STEP TIME COMPLETED       0.123    ,  TOTAL TIME COMPLETED        0.123    


  INCREMENT    21 STARTS. ATTEMPT NUMBER  1, TIME INCREMENT  1.000E-02
 
	UNSYMMETRIC NEW DIRECT SPARSE SOLVER RUNNING ON
 	1 HOST x 1 MPI RANK PER HOST x 1 THREAD PER RANK
        NUMBER OF EQUATIONS:  8178
        NUMBER OF RHS:        1
        NUMBER OF FLOPS:      2.590e+09
        SOLVER ELAPSED TIME:  85ms

               CONVERGENCE CHECKS FOR EQUILIBRIUM ITERATION     1


 AVERAGE FORCE                      9.552E-03   TIME AVG. FORCE       3.294E-03
 LARGEST SCALED RESIDUAL FORCE      1.390E-08   AT NODE       1642   DOF  1
   INSTANCE: PART-1-1                                                                        
  CORRESPONDING RESIDUAL FORCE      1.390E-08
 LARGEST INCREMENT OF DISP.         5.175E-04   AT NODE        735   DOF  1
   INSTANCE: PART-1-1                                                                        
 LARGEST CORRECTION TO DISP.       -5.880E-07   AT NODE       1886   DOF  2
   INSTANCE: PART-1-1                                                                        
          THE FORCE     EQUILIBRIUM EQUATIONS HAVE CONVERGED

 AVERAGE HEAT FLUX                  1.466E+11   TIME AVG. HEAT FLUX   2.440E+12
 LARGEST RESIDUAL HEAT FLUX         5.047E+06   AT NODE        445   DOF 11
   INSTANCE: PART-1-1                                                                        
 LARGEST INCREMENT OF TEMP.         2.632E+11   AT NODE         26   DOF 11
   INSTANCE: PART-1-1                                                                        
 LARGEST CORRECTION TO TEMP.        3.381E+07   AT NODE        445   DOF 11
   INSTANCE: PART-1-1                                                                        
          THE HEAT FLUX EQUILIBRIUM EQUATIONS HAVE CONVERGED

 MAXIMUM NON-PRESCRIBED INCREMENT IN TEMPERATURE IS   3.730E+08

 ITERATION SUMMARY FOR THE INCREMENT:   1 TOTAL ITERATIONS, OF WHICH
   0 ARE SEVERE DISCONTINUITY ITERATIONS AND  1 ARE EQUILIBRIUM ITERATIONS.

 TIME INCREMENT COMPLETED  1.000E-02,  FRACTION OF STEP COMPLETED  0.133    
 STEP TIME COMPLETED       0.133    ,  TOTAL TIME COMPLETED        0.133    


  INCREMENT    22 STARTS. ATTEMPT NUMBER  1, TIME INCREMENT  1.000E-02
 
	UNSYMMETRIC NEW DIRECT SPARSE SOLVER RUNNING ON
 	1 HOST x 1 MPI RANK PER HOST x 1 THREAD PER RANK
        NUMBER OF EQUATIONS:  8178
        NUMBER OF RHS:        1
        NUMBER OF FLOPS:      2.590e+09
        SOLVER ELAPSED TIME:  86ms

               CONVERGENCE CHECKS FOR EQUILIBRIUM ITERATION     1


 AVERAGE FORCE                      1.027E-02   TIME AVG. FORCE       3.611E-03
 LARGEST SCALED RESIDUAL FORCE      1.373E-08   AT NODE       1642   DOF  1
   INSTANCE: PART-1-1                                                                        
  CORRESPONDING RESIDUAL FORCE      1.373E-08
 LARGEST INCREMENT OF DISP.         5.175E-04   AT NODE        735   DOF  1
   INSTANCE: PART-1-1                                                                        
 LARGEST CORRECTION TO DISP.       -5.864E-07   AT NODE       1886   DOF  2
   INSTANCE: PART-1-1                                                                        
          THE FORCE     EQUILIBRIUM EQUATIONS HAVE CONVERGED

 AVERAGE HEAT FLUX                  1.399E+11   TIME AVG. HEAT FLUX   2.336E+12
 LARGEST RESIDUAL HEAT FLUX         5.483E+06   AT NODE        445   DOF 11
   INSTANCE: PART-1-1                                                                        
 LARGEST INCREMENT OF TEMP.         2.632E+11   AT NODE         26   DOF 11
   INSTANCE: PART-1-1                                                                        
 LARGEST CORRECTION TO TEMP.        3.407E+07   AT NODE        445   DOF 11
   INSTANCE: PART-1-1                                                                        
          THE HEAT FLUX EQUILIBRIUM EQUATIONS HAVE CONVERGED

 MAXIMUM NON-PRESCRIBED INCREMENT IN TEMPERATURE IS   4.071E+08

 ITERATION SUMMARY FOR THE INCREMENT:   1 TOTAL ITERATIONS, OF WHICH
   0 ARE SEVERE DISCONTINUITY ITERATIONS AND  1 ARE EQUILIBRIUM ITERATIONS.

 TIME INCREMENT COMPLETED  1.000E-02,  FRACTION OF STEP COMPLETED  0.143    
 STEP TIME COMPLETED       0.143    ,  TOTAL TIME COMPLETED        0.143    


  INCREMENT    23 STARTS. ATTEMPT NUMBER  1, TIME INCREMENT  1.000E-02
 
	UNSYMMETRIC NEW DIRECT SPARSE SOLVER RUNNING ON
 	1 HOST x 1 MPI RANK PER HOST x 1 THREAD PER RANK
        NUMBER OF EQUATIONS:  8178
        NUMBER OF RHS:        1
        NUMBER OF FLOPS:      2.590e+09
        SOLVER ELAPSED TIME:  86ms

               CONVERGENCE CHECKS FOR EQUILIBRIUM ITERATION     1


 AVERAGE FORCE                      1.098E-02   TIME AVG. FORCE       3.931E-03
 LARGEST SCALED RESIDUAL FORCE      1.354E-08   AT NODE       1642   DOF  1
   INSTANCE: PART-1-1                                                                        
  CORRESPONDING RESIDUAL FORCE      1.354E-08
 LARGEST INCREMENT OF DISP.         5.175E-04   AT NODE        735   DOF  1
   INSTANCE: PART-1-1                                                                        
 LARGEST CORRECTION TO DISP.       -5.848E-07   AT NODE       1886   DOF  2
   INSTANCE: PART-1-1                                                                        
          THE FORCE     EQUILIBRIUM EQUATIONS HAVE CONVERGED

 AVERAGE HEAT FLUX                  1.347E+11   TIME AVG. HEAT FLUX   2.240E+12
 LARGEST RESIDUAL HEAT FLUX         5.919E+06   AT NODE        445   DOF 11
   INSTANCE: PART-1-1                                                                        
 LARGEST INCREMENT OF TEMP.         2.632E+11   AT NODE         26   DOF 11
   INSTANCE: PART-1-1                                                                        
 LARGEST CORRECTION TO TEMP.        3.429E+07   AT NODE        445   DOF 11
   INSTANCE: PART-1-1                                                                        
          THE HEAT FLUX EQUILIBRIUM EQUATIONS HAVE CONVERGED

 MAXIMUM NON-PRESCRIBED INCREMENT IN TEMPERATURE IS   4.414E+08

 ITERATION SUMMARY FOR THE INCREMENT:   1 TOTAL ITERATIONS, OF WHICH
   0 ARE SEVERE DISCONTINUITY ITERATIONS AND  1 ARE EQUILIBRIUM ITERATIONS.

 TIME INCREMENT COMPLETED  1.000E-02,  FRACTION OF STEP COMPLETED  0.153    
 STEP TIME COMPLETED       0.153    ,  TOTAL TIME COMPLETED        0.153    


  INCREMENT    24 STARTS. ATTEMPT NUMBER  1, TIME INCREMENT  1.000E-02
 
	UNSYMMETRIC NEW DIRECT SPARSE SOLVER RUNNING ON
 	1 HOST x 1 MPI RANK PER HOST x 1 THREAD PER RANK
        NUMBER OF EQUATIONS:  8178
        NUMBER OF RHS:        1
        NUMBER OF FLOPS:      2.590e+09
        SOLVER ELAPSED TIME:  86ms

               CONVERGENCE CHECKS FOR EQUILIBRIUM ITERATION     1


 AVERAGE FORCE                      1.170E-02   TIME AVG. FORCE       4.255E-03
 LARGEST SCALED RESIDUAL FORCE      1.334E-08   AT NODE       1642   DOF  1
   INSTANCE: PART-1-1                                                                        
  CORRESPONDING RESIDUAL FORCE      1.334E-08
 LARGEST INCREMENT OF DISP.         5.175E-04   AT NODE        735   DOF  1
   INSTANCE: PART-1-1                                                                        
 LARGEST CORRECTION TO DISP.       -5.831E-07   AT NODE       1886   DOF  2
   INSTANCE: PART-1-1                                                                        
          THE FORCE     EQUILIBRIUM EQUATIONS HAVE CONVERGED

 AVERAGE HEAT FLUX                  1.303E+11   TIME AVG. HEAT FLUX   2.152E+12
 LARGEST RESIDUAL HEAT FLUX         6.358E+06   AT NODE        445   DOF 11
   INSTANCE: PART-1-1                                                                        
 LARGEST INCREMENT OF TEMP.         2.632E+11   AT NODE         26   DOF 11
   INSTANCE: PART-1-1                                                                        
 LARGEST CORRECTION TO TEMP.        3.450E+07   AT NODE        445   DOF 11
   INSTANCE: PART-1-1                                                                        
          THE HEAT FLUX EQUILIBRIUM EQUATIONS HAVE CONVERGED

 MAXIMUM NON-PRESCRIBED INCREMENT IN TEMPERATURE IS   4.759E+08

 ITERATION SUMMARY FOR THE INCREMENT:   1 TOTAL ITERATIONS, OF WHICH
   0 ARE SEVERE DISCONTINUITY ITERATIONS AND  1 ARE EQUILIBRIUM ITERATIONS.

 TIME INCREMENT COMPLETED  1.000E-02,  FRACTION OF STEP COMPLETED  0.163    
 STEP TIME COMPLETED       0.163    ,  TOTAL TIME COMPLETED        0.163    


  INCREMENT    25 STARTS. ATTEMPT NUMBER  1, TIME INCREMENT  1.000E-02
 
	UNSYMMETRIC NEW DIRECT SPARSE SOLVER RUNNING ON
 	1 HOST x 1 MPI RANK PER HOST x 1 THREAD PER RANK
        NUMBER OF EQUATIONS:  8178
        NUMBER OF RHS:        1
        NUMBER OF FLOPS:      2.590e+09
        SOLVER ELAPSED TIME:  86ms

               CONVERGENCE CHECKS FOR EQUILIBRIUM ITERATION     1


 AVERAGE FORCE                      1.241E-02   TIME AVG. FORCE       4.581E-03
 LARGEST SCALED RESIDUAL FORCE      1.313E-08   AT NODE       1642   DOF  1
   INSTANCE: PART-1-1                                                                        
  CORRESPONDING RESIDUAL FORCE      1.313E-08
 LARGEST INCREMENT OF DISP.         5.175E-04   AT NODE        735   DOF  1
   INSTANCE: PART-1-1                                                                        
 LARGEST CORRECTION TO DISP.       -5.815E-07   AT NODE       1886   DOF  2
   INSTANCE: PART-1-1                                                                        
          THE FORCE     EQUILIBRIUM EQUATIONS HAVE CONVERGED

 AVERAGE HEAT FLUX                  1.266E+11   TIME AVG. HEAT FLUX   2.071E+12
 LARGEST RESIDUAL HEAT FLUX         6.798E+06   AT NODE        445   DOF 11
   INSTANCE: PART-1-1                                                                        
 LARGEST INCREMENT OF TEMP.         2.632E+11   AT NODE         26   DOF 11
   INSTANCE: PART-1-1                                                                        
 LARGEST CORRECTION TO TEMP.        3.469E+07   AT NODE        445   DOF 11
   INSTANCE: PART-1-1                                                                        
          THE HEAT FLUX EQUILIBRIUM EQUATIONS HAVE CONVERGED

 MAXIMUM NON-PRESCRIBED INCREMENT IN TEMPERATURE IS   5.106E+08

 ITERATION SUMMARY FOR THE INCREMENT:   1 TOTAL ITERATIONS, OF WHICH
   0 ARE SEVERE DISCONTINUITY ITERATIONS AND  1 ARE EQUILIBRIUM ITERATIONS.

 TIME INCREMENT COMPLETED  1.000E-02,  FRACTION OF STEP COMPLETED  0.173    
 STEP TIME COMPLETED       0.173    ,  TOTAL TIME COMPLETED        0.173    


  INCREMENT    26 STARTS. ATTEMPT NUMBER  1, TIME INCREMENT  1.000E-02
 
	UNSYMMETRIC NEW DIRECT SPARSE SOLVER RUNNING ON
 	1 HOST x 1 MPI RANK PER HOST x 1 THREAD PER RANK
        NUMBER OF EQUATIONS:  8178
        NUMBER OF RHS:        1
        NUMBER OF FLOPS:      2.590e+09
        SOLVER ELAPSED TIME:  85ms

               CONVERGENCE CHECKS FOR EQUILIBRIUM ITERATION     1


 AVERAGE FORCE                      1.312E-02   TIME AVG. FORCE       4.910E-03
 LARGEST SCALED RESIDUAL FORCE      1.292E-08   AT NODE       1642   DOF  1
   INSTANCE: PART-1-1                                                                        
  CORRESPONDING RESIDUAL FORCE      1.292E-08
 LARGEST INCREMENT OF DISP.         5.175E-04   AT NODE        735   DOF  1
   INSTANCE: PART-1-1                                                                        
 LARGEST CORRECTION TO DISP.       -5.799E-07   AT NODE       1886   DOF  2
   INSTANCE: PART-1-1                                                                        
          THE FORCE     EQUILIBRIUM EQUATIONS HAVE CONVERGED

 AVERAGE HEAT FLUX                  1.230E+11   TIME AVG. HEAT FLUX   1.996E+12
 LARGEST RESIDUAL HEAT FLUX         7.240E+06   AT NODE        445   DOF 11
   INSTANCE: PART-1-1                                                                        
 LARGEST INCREMENT OF TEMP.         2.632E+11   AT NODE         26   DOF 11
   INSTANCE: PART-1-1                                                                        
 LARGEST CORRECTION TO TEMP.        3.488E+07   AT NODE        445   DOF 11
   INSTANCE: PART-1-1                                                                        
          THE HEAT FLUX EQUILIBRIUM EQUATIONS HAVE CONVERGED

 MAXIMUM NON-PRESCRIBED INCREMENT IN TEMPERATURE IS   5.454E+08

 ITERATION SUMMARY FOR THE INCREMENT:   1 TOTAL ITERATIONS, OF WHICH
   0 ARE SEVERE DISCONTINUITY ITERATIONS AND  1 ARE EQUILIBRIUM ITERATIONS.

 TIME INCREMENT COMPLETED  1.000E-02,  FRACTION OF STEP COMPLETED  0.183    
 STEP TIME COMPLETED       0.183    ,  TOTAL TIME COMPLETED        0.183    


  INCREMENT    27 STARTS. ATTEMPT NUMBER  1, TIME INCREMENT  1.000E-02
 
	UNSYMMETRIC NEW DIRECT SPARSE SOLVER RUNNING ON
 	1 HOST x 1 MPI RANK PER HOST x 1 THREAD PER RANK
        NUMBER OF EQUATIONS:  8178
        NUMBER OF RHS:        1
        NUMBER OF FLOPS:      2.590e+09
        SOLVER ELAPSED TIME:  85ms

               CONVERGENCE CHECKS FOR EQUILIBRIUM ITERATION     1


 AVERAGE FORCE                      1.383E-02   TIME AVG. FORCE       5.240E-03
 LARGEST SCALED RESIDUAL FORCE      1.270E-08   AT NODE       1642   DOF  1
   INSTANCE: PART-1-1                                                                        
  CORRESPONDING RESIDUAL FORCE      1.270E-08
 LARGEST INCREMENT OF DISP.         5.175E-04   AT NODE        735   DOF  1
   INSTANCE: PART-1-1                                                                        
 LARGEST CORRECTION TO DISP.       -5.782E-07   AT NODE       1886   DOF  2
   INSTANCE: PART-1-1                                                                        
          THE FORCE     EQUILIBRIUM EQUATIONS HAVE CONVERGED

 AVERAGE HEAT FLUX                  1.197E+11   TIME AVG. HEAT FLUX   1.927E+12
 LARGEST RESIDUAL HEAT FLUX         7.685E+06   AT NODE        445   DOF 11
   INSTANCE: PART-1-1                                                                        
 LARGEST INCREMENT OF TEMP.         2.632E+11   AT NODE         26   DOF 11
   INSTANCE: PART-1-1                                                                        
 LARGEST CORRECTION TO TEMP.        3.506E+07   AT NODE        445   DOF 11
   INSTANCE: PART-1-1                                                                        
          THE HEAT FLUX EQUILIBRIUM EQUATIONS HAVE CONVERGED

 MAXIMUM NON-PRESCRIBED INCREMENT IN TEMPERATURE IS   5.805E+08

 ITERATION SUMMARY FOR THE INCREMENT:   1 TOTAL ITERATIONS, OF WHICH
   0 ARE SEVERE DISCONTINUITY ITERATIONS AND  1 ARE EQUILIBRIUM ITERATIONS.

 TIME INCREMENT COMPLETED  1.000E-02,  FRACTION OF STEP COMPLETED  0.193    
 STEP TIME COMPLETED       0.193    ,  TOTAL TIME COMPLETED        0.193    


  INCREMENT    28 STARTS. ATTEMPT NUMBER  1, TIME INCREMENT  1.000E-02
 
	UNSYMMETRIC NEW DIRECT SPARSE SOLVER RUNNING ON
 	1 HOST x 1 MPI RANK PER HOST x 1 THREAD PER RANK
        NUMBER OF EQUATIONS:  8178
        NUMBER OF RHS:        1
        NUMBER OF FLOPS:      2.590e+09
        SOLVER ELAPSED TIME:  86ms

               CONVERGENCE CHECKS FOR EQUILIBRIUM ITERATION     1


 AVERAGE FORCE                      1.455E-02   TIME AVG. FORCE       5.572E-03
 LARGEST SCALED RESIDUAL FORCE      1.246E-08   AT NODE       1642   DOF  1
   INSTANCE: PART-1-1                                                                        
  CORRESPONDING RESIDUAL FORCE      1.246E-08
 LARGEST INCREMENT OF DISP.         5.175E-04   AT NODE        735   DOF  1
   INSTANCE: PART-1-1                                                                        
 LARGEST CORRECTION TO DISP.       -5.765E-07   AT NODE       1886   DOF  2
   INSTANCE: PART-1-1                                                                        
          THE FORCE     EQUILIBRIUM EQUATIONS HAVE CONVERGED

 AVERAGE HEAT FLUX                  1.168E+11   TIME AVG. HEAT FLUX   1.862E+12
 LARGEST RESIDUAL HEAT FLUX         8.132E+06   AT NODE        445   DOF 11
   INSTANCE: PART-1-1                                                                        
 LARGEST INCREMENT OF TEMP.         2.632E+11   AT NODE         26   DOF 11
   INSTANCE: PART-1-1                                                                        
 LARGEST CORRECTION TO TEMP.        3.524E+07   AT NODE        445   DOF 11
   INSTANCE: PART-1-1                                                                        
          THE HEAT FLUX EQUILIBRIUM EQUATIONS HAVE CONVERGED

 MAXIMUM NON-PRESCRIBED INCREMENT IN TEMPERATURE IS   6.157E+08

 ITERATION SUMMARY FOR THE INCREMENT:   1 TOTAL ITERATIONS, OF WHICH
   0 ARE SEVERE DISCONTINUITY ITERATIONS AND  1 ARE EQUILIBRIUM ITERATIONS.

 TIME INCREMENT COMPLETED  1.000E-02,  FRACTION OF STEP COMPLETED  0.203    
 STEP TIME COMPLETED       0.203    ,  TOTAL TIME COMPLETED        0.203    


  INCREMENT    29 STARTS. ATTEMPT NUMBER  1, TIME INCREMENT  1.000E-02
 
	UNSYMMETRIC NEW DIRECT SPARSE SOLVER RUNNING ON
 	1 HOST x 1 MPI RANK PER HOST x 1 THREAD PER RANK
        NUMBER OF EQUATIONS:  8178
        NUMBER OF RHS:        1
        NUMBER OF FLOPS:      2.590e+09
        SOLVER ELAPSED TIME:  86ms

               CONVERGENCE CHECKS FOR EQUILIBRIUM ITERATION     1


 AVERAGE FORCE                      1.526E-02   TIME AVG. FORCE       5.907E-03
 LARGEST SCALED RESIDUAL FORCE      1.222E-08   AT NODE       1642   DOF  1
   INSTANCE: PART-1-1                                                                        
  CORRESPONDING RESIDUAL FORCE      1.222E-08
 LARGEST INCREMENT OF DISP.         5.175E-04   AT NODE        735   DOF  1
   INSTANCE: PART-1-1                                                                        
 LARGEST CORRECTION TO DISP.       -5.747E-07   AT NODE       1886   DOF  2
   INSTANCE: PART-1-1                                                                        
          THE FORCE     EQUILIBRIUM EQUATIONS HAVE CONVERGED

 AVERAGE HEAT FLUX                  1.144E+11   TIME AVG. HEAT FLUX   1.802E+12
 LARGEST RESIDUAL HEAT FLUX         8.582E+06   AT NODE        445   DOF 11
   INSTANCE: PART-1-1                                                                        
 LARGEST INCREMENT OF TEMP.         2.632E+11   AT NODE         26   DOF 11
   INSTANCE: PART-1-1                                                                        
 LARGEST CORRECTION TO TEMP.        3.542E+07   AT NODE        445   DOF 11
   INSTANCE: PART-1-1                                                                        
          THE HEAT FLUX EQUILIBRIUM EQUATIONS HAVE CONVERGED

 MAXIMUM NON-PRESCRIBED INCREMENT IN TEMPERATURE IS   6.511E+08

 ITERATION SUMMARY FOR THE INCREMENT:   1 TOTAL ITERATIONS, OF WHICH
   0 ARE SEVERE DISCONTINUITY ITERATIONS AND  1 ARE EQUILIBRIUM ITERATIONS.

 TIME INCREMENT COMPLETED  1.000E-02,  FRACTION OF STEP COMPLETED  0.213    
 STEP TIME COMPLETED       0.213    ,  TOTAL TIME COMPLETED        0.213    


  INCREMENT    30 STARTS. ATTEMPT NUMBER  1, TIME INCREMENT  1.000E-02
 
	UNSYMMETRIC NEW DIRECT SPARSE SOLVER RUNNING ON
 	1 HOST x 1 MPI RANK PER HOST x 1 THREAD PER RANK
        NUMBER OF EQUATIONS:  8178
        NUMBER OF RHS:        1
        NUMBER OF FLOPS:      2.590e+09
        SOLVER ELAPSED TIME:  90ms

               CONVERGENCE CHECKS FOR EQUILIBRIUM ITERATION     1


 AVERAGE FORCE                      1.597E-02   TIME AVG. FORCE       6.242E-03
 LARGEST SCALED RESIDUAL FORCE      1.197E-08   AT NODE       1642   DOF  1
   INSTANCE: PART-1-1                                                                        
  CORRESPONDING RESIDUAL FORCE      1.197E-08
 LARGEST INCREMENT OF DISP.         5.175E-04   AT NODE        735   DOF  1
   INSTANCE: PART-1-1                                                                        
 LARGEST CORRECTION TO DISP.       -5.727E-07   AT NODE       1886   DOF  2
   INSTANCE: PART-1-1                                                                        
          THE FORCE     EQUILIBRIUM EQUATIONS HAVE CONVERGED

 AVERAGE HEAT FLUX                  1.124E+11   TIME AVG. HEAT FLUX   1.746E+12
 LARGEST RESIDUAL HEAT FLUX         9.034E+06   AT NODE        445   DOF 11
   INSTANCE: PART-1-1                                                                        
 LARGEST INCREMENT OF TEMP.         2.632E+11   AT NODE         26   DOF 11
   INSTANCE: PART-1-1                                                                        
 LARGEST CORRECTION TO TEMP.        3.560E+07   AT NODE        445   DOF 11
   INSTANCE: PART-1-1                                                                        
          THE HEAT FLUX EQUILIBRIUM EQUATIONS HAVE CONVERGED

 MAXIMUM NON-PRESCRIBED INCREMENT IN TEMPERATURE IS   6.867E+08

 ITERATION SUMMARY FOR THE INCREMENT:   1 TOTAL ITERATIONS, OF WHICH
   0 ARE SEVERE DISCONTINUITY ITERATIONS AND  1 ARE EQUILIBRIUM ITERATIONS.

 TIME INCREMENT COMPLETED  1.000E-02,  FRACTION OF STEP COMPLETED  0.223    
 STEP TIME COMPLETED       0.223    ,  TOTAL TIME COMPLETED        0.223    


  INCREMENT    31 STARTS. ATTEMPT NUMBER  1, TIME INCREMENT  1.000E-02
 
	UNSYMMETRIC NEW DIRECT SPARSE SOLVER RUNNING ON
 	1 HOST x 1 MPI RANK PER HOST x 1 THREAD PER RANK
        NUMBER OF EQUATIONS:  8178
        NUMBER OF RHS:        1
        NUMBER OF FLOPS:      2.590e+09
        SOLVER ELAPSED TIME:  86ms

               CONVERGENCE CHECKS FOR EQUILIBRIUM ITERATION     1


 AVERAGE FORCE                      1.668E-02   TIME AVG. FORCE       6.579E-03
 LARGEST SCALED RESIDUAL FORCE     -1.917E-08   AT NODE       1896   DOF  2
   INSTANCE: PART-1-1                                                                        
  CORRESPONDING RESIDUAL FORCE     -1.917E-08
 LARGEST INCREMENT OF DISP.         5.175E-04   AT NODE        735   DOF  1
   INSTANCE: PART-1-1                                                                        
 LARGEST CORRECTION TO DISP.       -5.703E-07   AT NODE       1886   DOF  2
   INSTANCE: PART-1-1                                                                        
          THE FORCE     EQUILIBRIUM EQUATIONS HAVE CONVERGED

 AVERAGE HEAT FLUX                  1.105E+11   TIME AVG. HEAT FLUX   1.693E+12
 LARGEST RESIDUAL HEAT FLUX         9.490E+06   AT NODE        445   DOF 11
   INSTANCE: PART-1-1                                                                        
 LARGEST INCREMENT OF TEMP.         2.632E+11   AT NODE         26   DOF 11
   INSTANCE: PART-1-1                                                                        
 LARGEST CORRECTION TO TEMP.        3.579E+07   AT NODE        445   DOF 11
   INSTANCE: PART-1-1                                                                        
          THE HEAT FLUX EQUILIBRIUM EQUATIONS HAVE CONVERGED

 MAXIMUM NON-PRESCRIBED INCREMENT IN TEMPERATURE IS   7.225E+08

 ITERATION SUMMARY FOR THE INCREMENT:   1 TOTAL ITERATIONS, OF WHICH
   0 ARE SEVERE DISCONTINUITY ITERATIONS AND  1 ARE EQUILIBRIUM ITERATIONS.

 TIME INCREMENT COMPLETED  1.000E-02,  FRACTION OF STEP COMPLETED  0.233    
 STEP TIME COMPLETED       0.233    ,  TOTAL TIME COMPLETED        0.233    


  INCREMENT    32 STARTS. ATTEMPT NUMBER  1, TIME INCREMENT  1.000E-02
 
	UNSYMMETRIC NEW DIRECT SPARSE SOLVER RUNNING ON
 	1 HOST x 1 MPI RANK PER HOST x 1 THREAD PER RANK
        NUMBER OF EQUATIONS:  8178
        NUMBER OF RHS:        1
        NUMBER OF FLOPS:      2.590e+09
        SOLVER ELAPSED TIME:  86ms

               CONVERGENCE CHECKS FOR EQUILIBRIUM ITERATION     1


 AVERAGE FORCE                      1.739E-02   TIME AVG. FORCE       6.917E-03
 LARGEST SCALED RESIDUAL FORCE      1.987E-08   AT NODE       1896   DOF  2
   INSTANCE: PART-1-1                                                                        
  CORRESPONDING RESIDUAL FORCE      1.987E-08
 LARGEST INCREMENT OF DISP.         5.175E-04   AT NODE        735   DOF  1
   INSTANCE: PART-1-1                                                                        
 LARGEST CORRECTION TO DISP.       -5.672E-07   AT NODE       1886   DOF  2
   INSTANCE: PART-1-1                                                                        
          THE FORCE     EQUILIBRIUM EQUATIONS HAVE CONVERGED

 AVERAGE HEAT FLUX                  1.090E+11   TIME AVG. HEAT FLUX   1.643E+12
 LARGEST RESIDUAL HEAT FLUX         9.949E+06   AT NODE        445   DOF 11
   INSTANCE: PART-1-1                                                                        
 LARGEST INCREMENT OF TEMP.         2.632E+11   AT NODE         26   DOF 11
   INSTANCE: PART-1-1                                                                        
 LARGEST CORRECTION TO TEMP.        3.598E+07   AT NODE        445   DOF 11
   INSTANCE: PART-1-1                                                                        
          THE HEAT FLUX EQUILIBRIUM EQUATIONS HAVE CONVERGED

 MAXIMUM NON-PRESCRIBED INCREMENT IN TEMPERATURE IS   7.585E+08

 ITERATION SUMMARY FOR THE INCREMENT:   1 TOTAL ITERATIONS, OF WHICH
   0 ARE SEVERE DISCONTINUITY ITERATIONS AND  1 ARE EQUILIBRIUM ITERATIONS.

 TIME INCREMENT COMPLETED  1.000E-02,  FRACTION OF STEP COMPLETED  0.243    
 STEP TIME COMPLETED       0.243    ,  TOTAL TIME COMPLETED        0.243    


  INCREMENT    33 STARTS. ATTEMPT NUMBER  1, TIME INCREMENT  1.000E-02
 
	UNSYMMETRIC NEW DIRECT SPARSE SOLVER RUNNING ON
 	1 HOST x 1 MPI RANK PER HOST x 1 THREAD PER RANK
        NUMBER OF EQUATIONS:  8178
        NUMBER OF RHS:        1
        NUMBER OF FLOPS:      2.590e+09
        SOLVER ELAPSED TIME:  85ms

               CONVERGENCE CHECKS FOR EQUILIBRIUM ITERATION     1


 AVERAGE FORCE                      1.810E-02   TIME AVG. FORCE       7.256E-03
 LARGEST SCALED RESIDUAL FORCE      5.636E-08   AT NODE       1896   DOF  2
   INSTANCE: PART-1-1                                                                        
  CORRESPONDING RESIDUAL FORCE      5.636E-08
 LARGEST INCREMENT OF DISP.         5.175E-04   AT NODE        735   DOF  1
   INSTANCE: PART-1-1                                                                        
 LARGEST CORRECTION TO DISP.       -5.631E-07   AT NODE       1886   DOF  2
   INSTANCE: PART-1-1                                                                        
          THE FORCE     EQUILIBRIUM EQUATIONS HAVE CONVERGED

 AVERAGE HEAT FLUX                  1.077E+11   TIME AVG. HEAT FLUX   1.597E+12
 LARGEST RESIDUAL HEAT FLUX         1.041E+07   AT NODE        445   DOF 11
   INSTANCE: PART-1-1                                                                        
 LARGEST INCREMENT OF TEMP.         2.632E+11   AT NODE         26   DOF 11
   INSTANCE: PART-1-1                                                                        
 LARGEST CORRECTION TO TEMP.        3.619E+07   AT NODE        445   DOF 11
   INSTANCE: PART-1-1                                                                        
          THE HEAT FLUX EQUILIBRIUM EQUATIONS HAVE CONVERGED

 MAXIMUM NON-PRESCRIBED INCREMENT IN TEMPERATURE IS   7.947E+08

 ITERATION SUMMARY FOR THE INCREMENT:   1 TOTAL ITERATIONS, OF WHICH
   0 ARE SEVERE DISCONTINUITY ITERATIONS AND  1 ARE EQUILIBRIUM ITERATIONS.

 TIME INCREMENT COMPLETED  1.000E-02,  FRACTION OF STEP COMPLETED  0.253    
 STEP TIME COMPLETED       0.253    ,  TOTAL TIME COMPLETED        0.253    


  INCREMENT    34 STARTS. ATTEMPT NUMBER  1, TIME INCREMENT  1.000E-02
 
	UNSYMMETRIC NEW DIRECT SPARSE SOLVER RUNNING ON
 	1 HOST x 1 MPI RANK PER HOST x 1 THREAD PER RANK
        NUMBER OF EQUATIONS:  8178
        NUMBER OF RHS:        1
        NUMBER OF FLOPS:      2.590e+09
        SOLVER ELAPSED TIME:  85ms

               CONVERGENCE CHECKS FOR EQUILIBRIUM ITERATION     1


 AVERAGE FORCE                      1.881E-02   TIME AVG. FORCE       7.596E-03
 LARGEST SCALED RESIDUAL FORCE      1.234E-07   AT NODE       2666   DOF  3
   INSTANCE: PART-1-1                                                                        
  CORRESPONDING RESIDUAL FORCE      1.234E-07
 LARGEST INCREMENT OF DISP.         5.174E-04   AT NODE        735   DOF  1
   INSTANCE: PART-1-1                                                                        
 LARGEST CORRECTION TO DISP.       -5.576E-07   AT NODE       1886   DOF  2
   INSTANCE: PART-1-1                                                                        
          THE FORCE     EQUILIBRIUM EQUATIONS HAVE CONVERGED

 AVERAGE HEAT FLUX                  1.066E+11   TIME AVG. HEAT FLUX   1.553E+12
 LARGEST RESIDUAL HEAT FLUX         1.088E+07   AT NODE        445   DOF 11
   INSTANCE: PART-1-1                                                                        
 LARGEST INCREMENT OF TEMP.         2.632E+11   AT NODE         26   DOF 11
   INSTANCE: PART-1-1                                                                        
[...]
        NUMBER OF EQUATIONS:  8178
        NUMBER OF RHS:        1
        NUMBER OF FLOPS:      2.590e+09
        SOLVER ELAPSED TIME:  86ms

               CONVERGENCE CHECKS FOR EQUILIBRIUM ITERATION     1


 AVERAGE FORCE                      7.004E-02   TIME AVG. FORCE       3.199E-02
 LARGEST SCALED RESIDUAL FORCE     -1.025E-04   AT NODE       2684   DOF  1
   INSTANCE: PART-1-1                                                                        
  CORRESPONDING RESIDUAL FORCE     -1.025E-04
 LARGEST INCREMENT OF DISP.         5.267E-04   AT NODE         30   DOF  1
   INSTANCE: PART-1-1                                                                        
 LARGEST CORRECTION TO DISP.       -1.706E-06   AT NODE        584   DOF  1
   INSTANCE: PART-1-1                                                                        
          THE FORCE     EQUILIBRIUM EQUATIONS HAVE CONVERGED

 AVERAGE HEAT FLUX                  8.542E+10   TIME AVG. HEAT FLUX   5.902E+11
 LARGEST RESIDUAL HEAT FLUX         5.682E+07   AT NODE        445   DOF 11
   INSTANCE: PART-1-1                                                                        
 LARGEST INCREMENT OF TEMP.         2.632E+11   AT NODE         26   DOF 11
   INSTANCE: PART-1-1                                                                        
 LARGEST CORRECTION TO TEMP.        8.153E+07   AT NODE        445   DOF 11
   INSTANCE: PART-1-1                                                                        
          THE HEAT FLUX EQUILIBRIUM EQUATIONS HAVE CONVERGED

 MAXIMUM NON-PRESCRIBED INCREMENT IN TEMPERATURE IS   4.352E+09

 ITERATION SUMMARY FOR THE INCREMENT:   1 TOTAL ITERATIONS, OF WHICH
   0 ARE SEVERE DISCONTINUITY ITERATIONS AND  1 ARE EQUILIBRIUM ITERATIONS.

 TIME INCREMENT COMPLETED  1.000E-02,  FRACTION OF STEP COMPLETED  0.923    
 STEP TIME COMPLETED       0.923    ,  TOTAL TIME COMPLETED        0.923    


  INCREMENT   101 STARTS. ATTEMPT NUMBER  1, TIME INCREMENT  1.000E-02
 
	UNSYMMETRIC NEW DIRECT SPARSE SOLVER RUNNING ON
 	1 HOST x 1 MPI RANK PER HOST x 1 THREAD PER RANK
        NUMBER OF EQUATIONS:  8178
        NUMBER OF RHS:        1
        NUMBER OF FLOPS:      2.590e+09
        SOLVER ELAPSED TIME:  86ms

               CONVERGENCE CHECKS FOR EQUILIBRIUM ITERATION     1


 AVERAGE FORCE                      7.073E-02   TIME AVG. FORCE       3.237E-02
 LARGEST SCALED RESIDUAL FORCE     -1.163E-04   AT NODE       2684   DOF  1
   INSTANCE: PART-1-1                                                                        
  CORRESPONDING RESIDUAL FORCE     -1.163E-04
 LARGEST INCREMENT OF DISP.         5.268E-04   AT NODE         30   DOF  1
   INSTANCE: PART-1-1                                                                        
 LARGEST CORRECTION TO DISP.       -1.681E-06   AT NODE        584   DOF  1
   INSTANCE: PART-1-1                                                                        
          THE FORCE     EQUILIBRIUM EQUATIONS HAVE CONVERGED

 AVERAGE HEAT FLUX                  8.507E+10   TIME AVG. HEAT FLUX   5.852E+11
 LARGEST RESIDUAL HEAT FLUX         5.777E+07   AT NODE        445   DOF 11
   INSTANCE: PART-1-1                                                                        
 LARGEST INCREMENT OF TEMP.         2.632E+11   AT NODE         26   DOF 11
   INSTANCE: PART-1-1                                                                        
 LARGEST CORRECTION TO TEMP.        8.286E+07   AT NODE        445   DOF 11
   INSTANCE: PART-1-1                                                                        
          THE HEAT FLUX EQUILIBRIUM EQUATIONS HAVE CONVERGED

 MAXIMUM NON-PRESCRIBED INCREMENT IN TEMPERATURE IS   4.435E+09

 ITERATION SUMMARY FOR THE INCREMENT:   1 TOTAL ITERATIONS, OF WHICH
   0 ARE SEVERE DISCONTINUITY ITERATIONS AND  1 ARE EQUILIBRIUM ITERATIONS.

 TIME INCREMENT COMPLETED  1.000E-02,  FRACTION OF STEP COMPLETED  0.933    
 STEP TIME COMPLETED       0.933    ,  TOTAL TIME COMPLETED        0.933    


  INCREMENT   102 STARTS. ATTEMPT NUMBER  1, TIME INCREMENT  1.000E-02
 
	UNSYMMETRIC NEW DIRECT SPARSE SOLVER RUNNING ON
 	1 HOST x 1 MPI RANK PER HOST x 1 THREAD PER RANK
        NUMBER OF EQUATIONS:  8178
        NUMBER OF RHS:        1
        NUMBER OF FLOPS:      2.590e+09
        SOLVER ELAPSED TIME:  87ms

               CONVERGENCE CHECKS FOR EQUILIBRIUM ITERATION     1


 AVERAGE FORCE                      7.143E-02   TIME AVG. FORCE       3.275E-02
 LARGEST SCALED RESIDUAL FORCE      1.411E-04   AT NODE       1598   DOF  2
   INSTANCE: PART-1-1                                                                        
  CORRESPONDING RESIDUAL FORCE      1.411E-04
 LARGEST INCREMENT OF DISP.         5.268E-04   AT NODE         30   DOF  1
   INSTANCE: PART-1-1                                                                        
 LARGEST CORRECTION TO DISP.       -1.635E-06   AT NODE        584   DOF  1
   INSTANCE: PART-1-1                                                                        
          THE FORCE     EQUILIBRIUM EQUATIONS HAVE CONVERGED

 AVERAGE HEAT FLUX                  8.494E+10   TIME AVG. HEAT FLUX   5.803E+11
 LARGEST RESIDUAL HEAT FLUX         5.873E+07   AT NODE        445   DOF 11
   INSTANCE: PART-1-1                                                                        
 LARGEST INCREMENT OF TEMP.         2.632E+11   AT NODE         26   DOF 11
   INSTANCE: PART-1-1                                                                        
 LARGEST CORRECTION TO TEMP.        8.421E+07   AT NODE        445   DOF 11
   INSTANCE: PART-1-1                                                                        
          THE HEAT FLUX EQUILIBRIUM EQUATIONS HAVE CONVERGED

 MAXIMUM NON-PRESCRIBED INCREMENT IN TEMPERATURE IS   4.519E+09

 ITERATION SUMMARY FOR THE INCREMENT:   1 TOTAL ITERATIONS, OF WHICH
   0 ARE SEVERE DISCONTINUITY ITERATIONS AND  1 ARE EQUILIBRIUM ITERATIONS.

 TIME INCREMENT COMPLETED  1.000E-02,  FRACTION OF STEP COMPLETED  0.943    
 STEP TIME COMPLETED       0.943    ,  TOTAL TIME COMPLETED        0.943    


  INCREMENT   103 STARTS. ATTEMPT NUMBER  1, TIME INCREMENT  1.000E-02
 
	UNSYMMETRIC NEW DIRECT SPARSE SOLVER RUNNING ON
 	1 HOST x 1 MPI RANK PER HOST x 1 THREAD PER RANK
        NUMBER OF EQUATIONS:  8178
        NUMBER OF RHS:        1
        NUMBER OF FLOPS:      2.590e+09
        SOLVER ELAPSED TIME:  89ms

               CONVERGENCE CHECKS FOR EQUILIBRIUM ITERATION     1


 AVERAGE FORCE                      7.211E-02   TIME AVG. FORCE       3.313E-02
 LARGEST SCALED RESIDUAL FORCE      1.453E-04   AT NODE       1598   DOF  2
   INSTANCE: PART-1-1                                                                        
  CORRESPONDING RESIDUAL FORCE      1.453E-04
 LARGEST INCREMENT OF DISP.         5.269E-04   AT NODE         30   DOF  1
   INSTANCE: PART-1-1                                                                        
 LARGEST CORRECTION TO DISP.       -1.577E-06   AT NODE        584   DOF  1
   INSTANCE: PART-1-1                                                                        
          THE FORCE     EQUILIBRIUM EQUATIONS HAVE CONVERGED

 AVERAGE HEAT FLUX                  8.471E+10   TIME AVG. HEAT FLUX   5.755E+11
 LARGEST RESIDUAL HEAT FLUX         5.969E+07   AT NODE        445   DOF 11
   INSTANCE: PART-1-1                                                                        
 LARGEST INCREMENT OF TEMP.         2.632E+11   AT NODE         26   DOF 11
   INSTANCE: PART-1-1                                                                        
 LARGEST CORRECTION TO TEMP.        8.559E+07   AT NODE        445   DOF 11
   INSTANCE: PART-1-1                                                                        
          THE HEAT FLUX EQUILIBRIUM EQUATIONS HAVE CONVERGED

 MAXIMUM NON-PRESCRIBED INCREMENT IN TEMPERATURE IS   4.605E+09

 ITERATION SUMMARY FOR THE INCREMENT:   1 TOTAL ITERATIONS, OF WHICH
   0 ARE SEVERE DISCONTINUITY ITERATIONS AND  1 ARE EQUILIBRIUM ITERATIONS.

 TIME INCREMENT COMPLETED  1.000E-02,  FRACTION OF STEP COMPLETED  0.953    
 STEP TIME COMPLETED       0.953    ,  TOTAL TIME COMPLETED        0.953    


  INCREMENT   104 STARTS. ATTEMPT NUMBER  1, TIME INCREMENT  1.000E-02
 
	UNSYMMETRIC NEW DIRECT SPARSE SOLVER RUNNING ON
 	1 HOST x 1 MPI RANK PER HOST x 1 THREAD PER RANK
        NUMBER OF EQUATIONS:  8178
        NUMBER OF RHS:        1
        NUMBER OF FLOPS:      2.590e+09
        SOLVER ELAPSED TIME:  87ms

               CONVERGENCE CHECKS FOR EQUILIBRIUM ITERATION     1


 AVERAGE FORCE                      7.282E-02   TIME AVG. FORCE       3.352E-02
 LARGEST SCALED RESIDUAL FORCE      1.213E-04   AT NODE       1598   DOF  2
   INSTANCE: PART-1-1                                                                        
  CORRESPONDING RESIDUAL FORCE      1.213E-04
 LARGEST INCREMENT OF DISP.         5.269E-04   AT NODE         30   DOF  1
   INSTANCE: PART-1-1                                                                        
 LARGEST CORRECTION TO DISP.       -1.521E-06   AT NODE        584   DOF  1
   INSTANCE: PART-1-1                                                                        
          THE FORCE     EQUILIBRIUM EQUATIONS HAVE CONVERGED

 AVERAGE HEAT FLUX                  8.459E+10   TIME AVG. HEAT FLUX   5.708E+11
 LARGEST RESIDUAL HEAT FLUX         6.066E+07   AT NODE        445   DOF 11
   INSTANCE: PART-1-1                                                                        
 LARGEST INCREMENT OF TEMP.         2.632E+11   AT NODE         26   DOF 11
   INSTANCE: PART-1-1                                                                        
 LARGEST CORRECTION TO TEMP.        8.699E+07   AT NODE        445   DOF 11
   INSTANCE: PART-1-1                                                                        
          THE HEAT FLUX EQUILIBRIUM EQUATIONS HAVE CONVERGED

 MAXIMUM NON-PRESCRIBED INCREMENT IN TEMPERATURE IS   4.692E+09

 ITERATION SUMMARY FOR THE INCREMENT:   1 TOTAL ITERATIONS, OF WHICH
   0 ARE SEVERE DISCONTINUITY ITERATIONS AND  1 ARE EQUILIBRIUM ITERATIONS.

 TIME INCREMENT COMPLETED  1.000E-02,  FRACTION OF STEP COMPLETED  0.963    
 STEP TIME COMPLETED       0.963    ,  TOTAL TIME COMPLETED        0.963    


  INCREMENT   105 STARTS. ATTEMPT NUMBER  1, TIME INCREMENT  1.000E-02
 
	UNSYMMETRIC NEW DIRECT SPARSE SOLVER RUNNING ON
 	1 HOST x 1 MPI RANK PER HOST x 1 THREAD PER RANK
        NUMBER OF EQUATIONS:  8178
        NUMBER OF RHS:        1
        NUMBER OF FLOPS:      2.590e+09
        SOLVER ELAPSED TIME:  86ms

               CONVERGENCE CHECKS FOR EQUILIBRIUM ITERATION     1


 AVERAGE FORCE                      7.351E-02   TIME AVG. FORCE       3.390E-02
 LARGEST SCALED RESIDUAL FORCE      8.860E-05   AT NODE       1598   DOF  2
   INSTANCE: PART-1-1                                                                        
  CORRESPONDING RESIDUAL FORCE      8.860E-05
 LARGEST INCREMENT OF DISP.         5.270E-04   AT NODE         30   DOF  1
   INSTANCE: PART-1-1                                                                        
 LARGEST CORRECTION TO DISP.       -1.494E-06   AT NODE       2700   DOF  2
   INSTANCE: PART-1-1                                                                        
          THE FORCE     EQUILIBRIUM EQUATIONS HAVE CONVERGED

 AVERAGE HEAT FLUX                  8.448E+10   TIME AVG. HEAT FLUX   5.661E+11
 LARGEST RESIDUAL HEAT FLUX         6.163E+07   AT NODE        445   DOF 11
   INSTANCE: PART-1-1                                                                        
 LARGEST INCREMENT OF TEMP.         2.632E+11   AT NODE         26   DOF 11
   INSTANCE: PART-1-1                                                                        
 LARGEST CORRECTION TO TEMP.        8.843E+07   AT NODE        445   DOF 11
   INSTANCE: PART-1-1                                                                        
          THE HEAT FLUX EQUILIBRIUM EQUATIONS HAVE CONVERGED

 MAXIMUM NON-PRESCRIBED INCREMENT IN TEMPERATURE IS   4.780E+09

 ITERATION SUMMARY FOR THE INCREMENT:   1 TOTAL ITERATIONS, OF WHICH
   0 ARE SEVERE DISCONTINUITY ITERATIONS AND  1 ARE EQUILIBRIUM ITERATIONS.

 TIME INCREMENT COMPLETED  1.000E-02,  FRACTION OF STEP COMPLETED  0.973    
 STEP TIME COMPLETED       0.973    ,  TOTAL TIME COMPLETED        0.973    


  INCREMENT   106 STARTS. ATTEMPT NUMBER  1, TIME INCREMENT  1.000E-02
 
	UNSYMMETRIC NEW DIRECT SPARSE SOLVER RUNNING ON
 	1 HOST x 1 MPI RANK PER HOST x 1 THREAD PER RANK
        NUMBER OF EQUATIONS:  8178
        NUMBER OF RHS:        1
        NUMBER OF FLOPS:      2.590e+09
        SOLVER ELAPSED TIME:  86ms

               CONVERGENCE CHECKS FOR EQUILIBRIUM ITERATION     1


 AVERAGE FORCE                      7.419E-02   TIME AVG. FORCE       3.428E-02
 LARGEST SCALED RESIDUAL FORCE      7.517E-05   AT NODE       1486   DOF  1
   INSTANCE: PART-1-1                                                                        
  CORRESPONDING RESIDUAL FORCE      7.517E-05
 LARGEST INCREMENT OF DISP.         5.271E-04   AT NODE         30   DOF  1
   INSTANCE: PART-1-1                                                                        
 LARGEST CORRECTION TO DISP.       -1.471E-06   AT NODE       2700   DOF  2
   INSTANCE: PART-1-1                                                                        
          THE FORCE     EQUILIBRIUM EQUATIONS HAVE CONVERGED

 AVERAGE HEAT FLUX                  8.409E+10   TIME AVG. HEAT FLUX   5.616E+11
 LARGEST RESIDUAL HEAT FLUX         6.260E+07   AT NODE        445   DOF 11
   INSTANCE: PART-1-1                                                                        
 LARGEST INCREMENT OF TEMP.         2.632E+11   AT NODE         26   DOF 11
   INSTANCE: PART-1-1                                                                        
 LARGEST CORRECTION TO TEMP.        8.988E+07   AT NODE        445   DOF 11
   INSTANCE: PART-1-1                                                                        
          THE HEAT FLUX EQUILIBRIUM EQUATIONS HAVE CONVERGED

 MAXIMUM NON-PRESCRIBED INCREMENT IN TEMPERATURE IS   4.870E+09

 ITERATION SUMMARY FOR THE INCREMENT:   1 TOTAL ITERATIONS, OF WHICH
   0 ARE SEVERE DISCONTINUITY ITERATIONS AND  1 ARE EQUILIBRIUM ITERATIONS.

 TIME INCREMENT COMPLETED  1.000E-02,  FRACTION OF STEP COMPLETED  0.983    
 STEP TIME COMPLETED       0.983    ,  TOTAL TIME COMPLETED        0.983    


  INCREMENT   107 STARTS. ATTEMPT NUMBER  1, TIME INCREMENT  1.000E-02
 
	UNSYMMETRIC NEW DIRECT SPARSE SOLVER RUNNING ON
 	1 HOST x 1 MPI RANK PER HOST x 1 THREAD PER RANK
        NUMBER OF EQUATIONS:  8178
        NUMBER OF RHS:        1
        NUMBER OF FLOPS:      2.590e+09
        SOLVER ELAPSED TIME:  93ms

               CONVERGENCE CHECKS FOR EQUILIBRIUM ITERATION     1


 AVERAGE FORCE                      7.485E-02   TIME AVG. FORCE       3.466E-02
 LARGEST SCALED RESIDUAL FORCE      8.980E-05   AT NODE       2161   DOF  1
   INSTANCE: PART-1-1                                                                        
  CORRESPONDING RESIDUAL FORCE      8.980E-05
 LARGEST INCREMENT OF DISP.         5.271E-04   AT NODE         30   DOF  1
   INSTANCE: PART-1-1                                                                        
 LARGEST CORRECTION TO DISP.       -1.453E-06   AT NODE       2700   DOF  2
   INSTANCE: PART-1-1                                                                        
          THE FORCE     EQUILIBRIUM EQUATIONS HAVE CONVERGED

 AVERAGE HEAT FLUX                  8.398E+10   TIME AVG. HEAT FLUX   5.571E+11
 LARGEST RESIDUAL HEAT FLUX         6.358E+07   AT NODE        445   DOF 11
   INSTANCE: PART-1-1                                                                        
 LARGEST INCREMENT OF TEMP.         2.632E+11   AT NODE         26   DOF 11
   INSTANCE: PART-1-1                                                                        
 LARGEST CORRECTION TO TEMP.        9.137E+07   AT NODE        445   DOF 11
   INSTANCE: PART-1-1                                                                        
          THE HEAT FLUX EQUILIBRIUM EQUATIONS HAVE CONVERGED

 MAXIMUM NON-PRESCRIBED INCREMENT IN TEMPERATURE IS   4.962E+09

 ITERATION SUMMARY FOR THE INCREMENT:   1 TOTAL ITERATIONS, OF WHICH
   0 ARE SEVERE DISCONTINUITY ITERATIONS AND  1 ARE EQUILIBRIUM ITERATIONS.

 TIME INCREMENT COMPLETED  1.000E-02,  FRACTION OF STEP COMPLETED  0.993    
 STEP TIME COMPLETED       0.993    ,  TOTAL TIME COMPLETED        0.993    


  INCREMENT   108 STARTS. ATTEMPT NUMBER  1, TIME INCREMENT  7.100E-03
 
	UNSYMMETRIC NEW DIRECT SPARSE SOLVER RUNNING ON
 	1 HOST x 1 MPI RANK PER HOST x 1 THREAD PER RANK
        NUMBER OF EQUATIONS:  8178
        NUMBER OF RHS:        1
        NUMBER OF FLOPS:      2.590e+09
        SOLVER ELAPSED TIME:  86ms

               CONVERGENCE CHECKS FOR EQUILIBRIUM ITERATION     1


 AVERAGE FORCE                      7.534E-02   TIME AVG. FORCE       3.503E-02
 LARGEST SCALED RESIDUAL FORCE     -3.537E-05   AT NODE       2467   DOF  1
   INSTANCE: PART-1-1                                                                        
  CORRESPONDING RESIDUAL FORCE     -3.537E-05
 LARGEST INCREMENT OF DISP.         3.743E-04   AT NODE         30   DOF  1
   INSTANCE: PART-1-1                                                                        
 LARGEST CORRECTION TO DISP.       -7.256E-07   AT NODE       2700   DOF  2
   INSTANCE: PART-1-1                                                                        
          THE FORCE     EQUILIBRIUM EQUATIONS HAVE CONVERGED

 AVERAGE HEAT FLUX                  8.372E+10   TIME AVG. HEAT FLUX   5.528E+11
 LARGEST RESIDUAL HEAT FLUX         3.289E+07   AT NODE        445   DOF 11
   INSTANCE: PART-1-1                                                                        
 LARGEST INCREMENT OF TEMP.         1.869E+11   AT NODE         26   DOF 11
   INSTANCE: PART-1-1                                                                        
 LARGEST CORRECTION TO TEMP.        4.695E+07   AT NODE        445   DOF 11
   INSTANCE: PART-1-1                                                                        
          THE HEAT FLUX EQUILIBRIUM EQUATIONS HAVE CONVERGED

 MAXIMUM NON-PRESCRIBED INCREMENT IN TEMPERATURE IS   3.570E+09

 ITERATION SUMMARY FOR THE INCREMENT:   1 TOTAL ITERATIONS, OF WHICH
   0 ARE SEVERE DISCONTINUITY ITERATIONS AND  1 ARE EQUILIBRIUM ITERATIONS.

 TIME INCREMENT COMPLETED  7.100E-03,  FRACTION OF STEP COMPLETED   1.00    
 STEP TIME COMPLETED        1.00    ,  TOTAL TIME COMPLETED         1.00    


          THE ANALYSIS HAS BEEN COMPLETED



     ANALYSIS SUMMARY:
     TOTAL OF        108  INCREMENTS
                       0  CUTBACKS IN AUTOMATIC INCREMENTATION
                     156  ITERATIONS INCLUDING CONTACT ITERATIONS IF PRESENT
                     156  PASSES THROUGH THE EQUATION SOLVER OF WHICH 
                     156  INVOLVE MATRIX DECOMPOSITION, INCLUDING
                       0  DECOMPOSITION(S) OF THE MASS MATRIX
                       1  REORDERING OF EQUATIONS TO MINIMIZE WAVEFRONT
                       0  ADDITIONAL RESIDUAL EVALUATIONS FOR LINE SEARCHES
                       0  ADDITIONAL OPERATOR EVALUATIONS FOR LINE SEARCHES
                       2  WARNING MESSAGES DURING USER INPUT PROCESSING
                       0  WARNING MESSAGES DURING ANALYSIS
                       0  ANALYSIS WARNINGS ARE NUMERICAL PROBLEM MESSAGES
                       0  ANALYSIS WARNINGS ARE NEGATIVE EIGENVALUE MESSAGES
                       0  ERROR MESSAGES



     JOB TIME SUMMARY
       USER TIME (SEC)      =     3.31E+02
       SYSTEM TIME (SEC)    =      83.    
       TOTAL CPU TIME (SEC) =     4.14E+02
       WALLCLOCK TIME (SEC) =          501
       MEMORY PEAK (GB)     =            2
