1

   Abaqus 2024                                  Date 11-Jun-2025   Time 09:08:05
   For use by UNIVERSITY OF WYOMING under license from Dassault Systemes or its subsidiary.

 OneFifthMesh-periodic                                                           
                                                                                 
 STEP    1     INCREMENT     1     STEP TIME    0.00    


                        S T E P       1     C O U P L E D - T E M P E R A T U R E - D I S P L A C E M E N T   A N A L Y S I S


                                                                                          

     AUTOMATIC TIME CONTROL WITH -
          A SUGGESTED INITIAL TIME INCREMENT OF                1.000E-05
          AND A TOTAL TIME PERIOD OF                            1.00    
          THE MINIMUM TIME INCREMENT ALLOWED IS                1.000E-25
          THE MAXIMUM TIME INCREMENT ALLOWED IS                1.000E-03

          CREEP AND SWELLING EFFECTS ARE OMITTED IN THIS STEP

     THE SIZE OF THE TIME INCREMENT IS CONTROLLED BY -
          THE TEMPERATURE CHANGE PER INCREMENT NOT EXCEEDING           1.000E+13
          THE RATE DEPENDENCY WILL BE CONSIDERED IN THIS STEP

          CREEP AND SWELLING EFFECTS WILL BE IGNORED.

 CONVERGENCE TOLERANCE PARAMETERS FOR FORCE    
     CRITERION FOR RESIDUAL FORCE     FOR A NONLINEAR PROBLEM          5.000E-03
     CRITERION FOR DISP.    CORRECTION IN A NONLINEAR PROBLEM          1.000E-02
     INITIAL VALUE OF TIME AVERAGE FORCE                               1.000E-02
     AVERAGE FORCE     IS TIME AVERAGE FORCE    
     ALTERNATE CRIT. FOR RESIDUAL FORCE     FOR A NONLINEAR PROBLEM    2.000E-02
     CRITERION FOR ZERO FORCE     RELATIVE TO TIME AVRG. FORCE         1.000E-05
     CRITERION FOR RESIDUAL FORCE     WHEN THERE IS ZERO FLUX          1.000E-05
     CRITERION FOR DISP.    CORRECTION WHEN THERE IS ZERO FLUX         1.000E-03
     CRITERION FOR RESIDUAL FORCE     FOR A LINEAR INCREMENT           1.000E-08
     FIELD CONVERSION RATIO                                             1.00    
     CRITERION FOR ZERO FORCE     REL. TO TIME AVRG. MAX. FORCE        1.000E-05
     CRITERION FOR ZERO DISP.    RELATIVE TO CHARACTERISTIC LENGTH     1.000E-08

 CONVERGENCE TOLERANCE PARAMETERS FOR HEAT FLUX
     CRITERION FOR RESIDUAL HEAT FLUX FOR A NONLINEAR PROBLEM          5.000E-03
     CRITERION FOR TEMP.    CORRECTION IN A NONLINEAR PROBLEM          1.000E-02
     INITIAL VALUE OF TIME AVERAGE HEAT FLUX                           1.000E-02
     AVERAGE HEAT FLUX IS TIME AVERAGE HEAT FLUX
     ALTERNATE CRIT. FOR RESIDUAL HEAT FLUX FOR A NONLINEAR PROBLEM    2.000E-02
     CRITERION FOR ZERO HEAT FLUX RELATIVE TO TIME AVRG. HEAT FLUX     1.000E-05
     CRITERION FOR RESIDUAL HEAT FLUX WHEN THERE IS ZERO FLUX          1.000E-05
     CRITERION FOR TEMP.    CORRECTION WHEN THERE IS ZERO FLUX         1.000E-03
     CRITERION FOR RESIDUAL HEAT FLUX FOR A LINEAR INCREMENT           1.000E-08
     FIELD CONVERSION RATIO                                             1.00    
     CRITERION FOR ZERO HEAT FLUX REL. TO TIME AVRG. MAX. HEAT FLUX    1.000E-05

     VOLUMETRIC STRAIN COMPATIBILITY TOLERANCE FOR HYBRID SOLIDS       1.000E-05
     AXIAL STRAIN COMPATIBILITY TOLERANCE FOR HYBRID BEAMS             1.000E-05
     TRANS. SHEAR STRAIN COMPATIBILITY TOLERANCE FOR HYBRID BEAMS      1.000E-05
     SOFT CONTACT CONSTRAINT COMPATIBILITY TOLERANCE FOR P>P0          5.000E-03
     SOFT CONTACT CONSTRAINT COMPATIBILITY TOLERANCE FOR P=0.0         0.100    
     CONTACT FORCE ERROR TOLERANCE FOR CONVERT SDI=YES                 1.00    
     DISPLACEMENT COMPATIBILITY TOLERANCE FOR DCOUP ELEMENTS           1.000E-05
     ROTATION COMPATIBILITY TOLERANCE FOR DCOUP ELEMENTS               1.000E-05

 EQUILIBRIUM WILL BE CHECKED FOR SEVERE DISCONTINUITY ITERATIONS

 TIME INCREMENTATION CONTROL PARAMETERS:
     FIRST EQUILIBRIUM ITERATION FOR CONSECUTIVE DIVERGENCE CHECK              4
     EQUILIBRIUM ITERATION AT WHICH LOG. CONVERGENCE RATE CHECK BEGINS         8
     EQUILIBRIUM ITERATION AFTER WHICH ALTERNATE RESIDUAL IS USED              9
     MAXIMUM EQUILIBRIUM ITERATIONS ALLOWED                                   16
     EQUILIBRIUM ITERATION COUNT FOR CUT-BACK IN NEXT INCREMENT               10
     MAXIMUM EQUILIB. ITERS IN TWO INCREMENTS FOR TIME INCREMENT INCREASE      4
     MAXIMUM ITERATIONS FOR SEVERE DISCONTINUITIES                            50
     MAXIMUM ATTEMPTS ALLOWED IN AN INCREMENT                                  5
     MAXIMUM DISCON. ITERS IN TWO INCREMENTS FOR TIME INCREMENT INCREASE      50
     MAXIMUM CONTACT AUGMENTATIONS FOR *SURFACE BEHAVIOR,AUGMENTED LAGRANGE   50
     CONSECUTIVE INCS MEETING TIME INTEG. TOL. FOR TIME INC. INCREASE          3
     CUT-BACK FACTOR AFTER DIVERGENCE                                 0.2500    
     CUT-BACK FACTOR FOR TOO SLOW CONVERGENCE                         0.5000    
     CUT-BACK FACTOR AFTER TOO MANY EQUILIBRIUM ITERATIONS            0.7500    
     CUT-BACK FACTOR AFTER TOO MANY SEVERE DISCONTINUITY ITERATIONS   0.2500    
     CUT-BACK FACTOR AFTER PROBLEMS IN ELEMENT ASSEMBLY               0.2500    
     INCREASE FACTOR AFTER TWO INCREMENTS THAT CONVERGE QUICKLY        1.500    
     MAX. TIME INCREMENT INCREASE FACTOR ALLOWED                       1.500    
     MAX. TIME INCREMENT INCREASE FACTOR ALLOWED (DYNAMICS)            1.250    
     MAX. TIME INCREMENT INCREASE FACTOR ALLOWED (DIFFUSION)           2.000    
     MINIMUM TIME INCREMENT RATIO FOR EXTRAPOLATION TO OCCUR          0.1000    
     CUT-BACK FACTOR WHEN TIME INTEGRATION ACCURACY TOL. EXCEEDED     0.8500    
     MAX. RATIO OF TIME INTEG. MEASURE TO TOL. FOR TIME INC. INCREASE 0.7500    
     INCREASE FACTOR FOR TIME INCREMENT WHEN POSSIBLE                 0.8000    
     MIN. TIME INC. INCREASE FACTOR IN LINEAR TRANSIENT PROBLEMS      0.9500    
     MAX. RATIO OF TIME INCREMENT TO STABILITY LIMIT                   1.000    
     FRACTION OF STABILITY LIMIT FOR NEW TIME INCREMENT               0.9500    
     TIME INCREMENT INCREASE FACTOR BEFORE A TIME POINT                1.000    
     GLOBAL STABILIZATION CONTROL IS NOT USED

          PRINT OF INCREMENT NUMBER, TIME, ETC., EVERY    1  INCREMENTS

     THE MAXIMUM NUMBER OF INCREMENTS IN THIS STEP IS                   10000

          LARGE DISPLACEMENT THEORY WILL BE USED

          UNSYMMETRIC MATRIX STORAGE AND SOLUTION WILL BE USED

     LINEAR EXTRAPOLATION WILL BE USED

     CHARACTERISTIC ELEMENT LENGTH     0.299    

     DETAILS REGARDING ACTUAL SOLUTION WAVEFRONT REQUESTED

     DETAILED OUTPUT OF DIAGNOSTICS TO DATABASE REQUESTED

     PRINT OF INCREMENT NUMBER, TIME, ETC., TO THE MESSAGE FILE EVERY     1  INCREMENTS

     COLLECTING MODEL CONSTRAINT INFORMATION FOR OVERCONSTRAINT CHECKS

     COLLECTING STEP CONSTRAINT INFORMATION FOR OVERCONSTRAINT CHECKS


  INCREMENT     1 STARTS. ATTEMPT NUMBER  1, TIME INCREMENT  1.000E-05
 
	UNSYMMETRIC NEW DIRECT SPARSE SOLVER RUNNING ON
 	1 HOST x 1 MPI RANK PER HOST x 1 THREAD PER RANK
        NUMBER OF EQUATIONS:  33228
        NUMBER OF RHS:        1
        NUMBER OF FLOPS:      4.356e+10
        SOLVER ELAPSED TIME:  1.1s

               CONVERGENCE CHECKS FOR EQUILIBRIUM ITERATION     1


 AVERAGE FORCE                      7.903E-10   TIME AVG. FORCE       1.000E-02
 LARGEST SCALED RESIDUAL FORCE      1.266E-16   AT NODE       8958   DOF  3
   INSTANCE: PART-1-1                                                                        
  CORRESPONDING RESIDUAL FORCE      1.266E-16
 LARGEST INCREMENT OF DISP.         1.042E-08   AT NODE          2   DOF  3
   INSTANCE: PART-1-1                                                                        
 LARGEST CORRECTION TO DISP.        1.042E-08   AT NODE          2   DOF  3
   INSTANCE: PART-1-1                                                                        
          THERE IS ZERO FORCE     EVERYWHERE
 

 ***WARNING: THERE IS ZERO FORCE EVERYWHERE IN THE MODEL BASED ON THE DEFAULT 
             CRITERION. PLEASE CHECK THE VALUE OF THE AVERAGE FORCE DURING THE 
             CURRENT ITERATION TO VERIFY THAT THE FORCE IS SMALL ENOUGH TO BE 
             TREATED AS ZERO. IF NOT, PLEASE USE THE SOLUTION CONTROLS TO RESET 
             THE CRITERION FOR ZERO FORCE.

 AVERAGE HEAT FLUX                  9.239E+13   TIME AVG. HEAT FLUX   9.239E+13
 LARGEST RESIDUAL HEAT FLUX         4.239E+09   AT NODE       1434   DOF 11
   INSTANCE: PART-1-1                                                                        
 LARGEST INCREMENT OF TEMP.        -2.659E+11   AT NODE          3   DOF 11
   INSTANCE: PART-1-1                                                                        
 LARGEST CORRECTION TO TEMP.       -2.659E+11   AT NODE          3   DOF 11
   INSTANCE: PART-1-1                                                                        
          TEMP.    CORRECTION TOO LARGE COMPARED TO TEMP.    INCREMENT
 
	UNSYMMETRIC NEW DIRECT SPARSE SOLVER RUNNING ON
 	1 HOST x 1 MPI RANK PER HOST x 1 THREAD PER RANK
        NUMBER OF EQUATIONS:  33228
        NUMBER OF RHS:        1
        NUMBER OF FLOPS:      4.356e+10
        SOLVER ELAPSED TIME:  1.1s

               CONVERGENCE CHECKS FOR EQUILIBRIUM ITERATION     2


 AVERAGE FORCE                      7.903E-10   TIME AVG. FORCE       1.000E-02
 LARGEST SCALED RESIDUAL FORCE      5.931E-22   AT NODE       6884   DOF  3
   INSTANCE: PART-1-1                                                                        
  CORRESPONDING RESIDUAL FORCE      5.931E-22
 LARGEST INCREMENT OF DISP.         1.042E-08   AT NODE          2   DOF  3
   INSTANCE: PART-1-1                                                                        
 LARGEST CORRECTION TO DISP.        1.165E-16   AT NODE          5   DOF  3
   INSTANCE: PART-1-1                                                                        
          THERE IS ZERO FORCE     EVERYWHERE
 

 ***WARNING: THERE IS ZERO FORCE EVERYWHERE IN THE MODEL BASED ON THE DEFAULT 
             CRITERION. PLEASE CHECK THE VALUE OF THE AVERAGE FORCE DURING THE 
             CURRENT ITERATION TO VERIFY THAT THE FORCE IS SMALL ENOUGH TO BE 
             TREATED AS ZERO. IF NOT, PLEASE USE THE SOLUTION CONTROLS TO RESET 
             THE CRITERION FOR ZERO FORCE.

 AVERAGE HEAT FLUX                  9.237E+13   TIME AVG. HEAT FLUX   9.237E+13
 LARGEST RESIDUAL HEAT FLUX         -706.       AT NODE       1434   DOF 11
   INSTANCE: PART-1-1                                                                        
 LARGEST INCREMENT OF TEMP.        -2.659E+11   AT NODE          3   DOF 11
   INSTANCE: PART-1-1                                                                        
 LARGEST CORRECTION TO TEMP.        9.655E+04   AT NODE        867   DOF 11
   INSTANCE: PART-1-1                                                                        
          THE HEAT FLUX EQUILIBRIUM EQUATIONS HAVE CONVERGED

 MAXIMUM NON-PRESCRIBED INCREMENT IN TEMPERATURE IS  -6.352E+04

 ITERATION SUMMARY FOR THE INCREMENT:   2 TOTAL ITERATIONS, OF WHICH
   0 ARE SEVERE DISCONTINUITY ITERATIONS AND  2 ARE EQUILIBRIUM ITERATIONS.

 TIME INCREMENT COMPLETED  1.000E-05,  FRACTION OF STEP COMPLETED  1.000E-05
 STEP TIME COMPLETED       1.000E-05,  TOTAL TIME COMPLETED        1.000E-05


  INCREMENT     2 STARTS. ATTEMPT NUMBER  1, TIME INCREMENT  1.000E-05
 
	UNSYMMETRIC NEW DIRECT SPARSE SOLVER RUNNING ON
 	1 HOST x 1 MPI RANK PER HOST x 1 THREAD PER RANK
        NUMBER OF EQUATIONS:  33228
        NUMBER OF RHS:        1
        NUMBER OF FLOPS:      4.356e+10
        SOLVER ELAPSED TIME:  1.1s

               CONVERGENCE CHECKS FOR EQUILIBRIUM ITERATION     1


 AVERAGE FORCE                      1.581E-09   TIME AVG. FORCE       1.000E-02
 LARGEST SCALED RESIDUAL FORCE      6.088E-22   AT NODE       1932   DOF  3
   INSTANCE: PART-1-1                                                                        
  CORRESPONDING RESIDUAL FORCE      6.088E-22
 LARGEST INCREMENT OF DISP.         1.042E-08   AT NODE          2   DOF  3
   INSTANCE: PART-1-1                                                                        
 LARGEST CORRECTION TO DISP.        1.668E-16   AT NODE          5   DOF  3
   INSTANCE: PART-1-1                                                                        
          THERE IS ZERO FORCE     EVERYWHERE
 

 ***WARNING: THERE IS ZERO FORCE EVERYWHERE IN THE MODEL BASED ON THE DEFAULT 
             CRITERION. PLEASE CHECK THE VALUE OF THE AVERAGE FORCE DURING THE 
             CURRENT ITERATION TO VERIFY THAT THE FORCE IS SMALL ENOUGH TO BE 
             TREATED AS ZERO. IF NOT, PLEASE USE THE SOLUTION CONTROLS TO RESET 
             THE CRITERION FOR ZERO FORCE.

 AVERAGE HEAT FLUX                  4.618E+09   TIME AVG. HEAT FLUX   4.619E+13
 LARGEST RESIDUAL HEAT FLUX        -1.930E+09   AT NODE       1434   DOF 11
   INSTANCE: PART-1-1                                                                        
 LARGEST INCREMENT OF TEMP.         1.330E+07   AT NODE          3   DOF 11
   INSTANCE: PART-1-1                                                                        
 LARGEST CORRECTION TO TEMP.        2.659E+11   AT NODE          3   DOF 11
   INSTANCE: PART-1-1                                                                        
          TEMP.    CORRECTION TOO LARGE COMPARED TO TEMP.    INCREMENT
 
	UNSYMMETRIC NEW DIRECT SPARSE SOLVER RUNNING ON
 	1 HOST x 1 MPI RANK PER HOST x 1 THREAD PER RANK
        NUMBER OF EQUATIONS:  33228
        NUMBER OF RHS:        1
        NUMBER OF FLOPS:      4.356e+10
        SOLVER ELAPSED TIME:  1.1s

----------- JOB HAS BEEN INTERRUPTED  --------------
*** ABAQUS/standard has been terminated by the Batch Queue Management
