*Heading 
 OneFifthMesh-periodic 
** Job name: OneFifthMesh-Periodic Model name: tension-5-periodic 
** Generated by: Abaqus/CAE 2019 
*Preprint, echo=NO, model=NO, history=NO, contact=NO 
** 
** PARTS 
** 
*Part, name=Part-1 
*Node 
      1,          -1.,          -1.,           2.
      2,          -1.,           1.,           2.
      3,          -1.,           1.,           0.
      4,          -1.,          -1.,           0.
      5,           1.,           1.,           2.
      6,           1.,           1.,           0.
      7,           1.,          -1.,           0.
      8,           1.,          -1.,           2.
      9,          -1., -0.800000012,           2.
     10,          -1., -0.600000024,           2.
     11,          -1., -0.400000006,           2.
     12,          -1., -0.200000003,           2.
     13,          -1.,           0.,           2.
     14,          -1.,  0.200000003,           2.
     15,          -1.,  0.400000006,           2.
     16,          -1.,  0.600000024,           2.
     17,          -1.,  0.800000012,           2.
     18,          -1.,           1.,   1.79999995
     19,          -1.,           1.,   1.60000002
     20,          -1.,           1.,   1.39999998
** ... 10560 like lines cut
*Element, type=C3D10T
   1,   603,   604,   605,   606,  1491,  1490,  1489,  1493,  1492,  1494
   2,   603,   605,   607,   608,  1489,  1496,  1495,  1498,  1497,  1499
   3,   603,   609,   610,   611,  1502,  1501,  1500,  1504,  1503,  1505
   4,   603,   612,   608,   613,  1507,  1506,  1498,  1509,  1508,  1510
   5,   603,   609,   611,   606,  1502,  1503,  1504,  1493,  1511,  1512
   6,   614,   615,   616,   617,  1515,  1514,  1513,  1517,  1516,  1518
   7,   614,   618,   616,   619,  1520,  1519,  1513,  1522,  1521,  1523
   8,   614,   618,   620,   616,  1520,  1525,  1524,  1513,  1519,  1526
   9,   614,   621,   620,   622,  1528,  1527,  1524,  1530,  1529,  1531
  10,   614,   623,   624,   625,  1534,  1533,  1532,  1536,  1535,  1537
  11,   626,   627,   628,   629,  1540,  1539,  1538,  1542,  1541,  1543
  12,   626,   628,   627,   630,  1538,  1539,  1540,  1545,  1544,  1546
  13,   626,   612,   631,   613,  1549,  1548,  1547,  1550,  1508,  1551
  14,   626,   632,   629,   633,  1553,  1552,  1542,  1555,  1554,  1556
  15,   626,   634,   633,   628,  1558,  1557,  1555,  1538,  1559,  1560
  16,   626,   635,   628,   630,  1562,  1561,  1538,  1545,  1563,  1544
  17,   636,   632,   637,   638,  1566,  1565,  1564,  1568,  1567,  1569
  18,   639,   636,   629,   640,  1572,  1571,  1570,  1574,  1573,  1575
  19,   636,   641,   638,   642,  1577,  1576,  1568,  1579,  1578,  1580
  20,   636,   639,   642,   640,  1572,  1581,  1579,  1573,  1574,  1582
** ... 6985 like lines cut
*Nset, nset=Set-1, generate
     1,  10580,      1
*Elset, elset=Set-1, generate
    1,  7005,     1
*Nset, nset=Set-1
     1,     2,     5,     8,     9,    10,    11,    12,    13,    14,    15,    16,    17,    45,    46,    47
    48,    49,    50,    51,    52,    53,    90,    91,    92,    93,    94,    95,    96,    97,    98,   108
   109,   110,   111,   112,   113,   114,   115,   116,   441,   442,   443,   444,   445,   446,   447,   448
   449,   450,   451,   452,   453,   454,   455,   456,   457,   458,   459,   460,   461,   462,   463,   464
   465,   466,   467,   468,   469,   470,   471,   472,   473,   474,   475,   476,   477,   478,   479,   480
   481,   482,   483,   484,   485,   486,   487,   488,   489,   490,   491,   492,   493,   494,   495,   496
   497,   498,   499,   500,   501,   502,   503,   504,   505,   506,   507,   508,   509,   510,   511,   512
   513,   514,   515,   516,   517,   518,   519,   520,   521,  1700,  1940,  2241,  2388,  2648,  2650,  2652
  3280,  3282,  3284,  3444,  3446,  3448,  3556,  3557,  3559,  3717,  3718,  3833,  3892,  4262,  4264,  4266
  4268,  4270,  4272,  4304,  4421,  4484,  4515,  4860,  4862,  4864,  5261,  5263,  5264,  5284,  5286,  5289
  5291,  5293,  5318,  5320,  5322,  5367,  5369,  5371,  5381,  5383,  5385,  5410,  5428,  5462,  5484,  5495
  5498,  5499,  5500,  5520,  5522,  5524,  5550,  5572,  5592,  5594,  5596,  5614,  5642,  5653,  5655,  5657
  5659,  5660,  5662,  5664,  5708,  5743,  5745,  5747,  5752,  5775,  5794,  5862,  5864,  5865,  5867,  5900
  5902,  5904,  6080,  6082,  6083,  6138,  6197,  6421,  6423,  6425,  7026,  7030,  7090,  7091,  7120,  7121
  7123,  7127,  7160,  7162,  7164,  7203,  7217,  7219,  7221,  7234,  7261,  7302,  7304,  7306,  7334,  7335
  7337,  7367,  7413,  7489,  7490,  7501,  7503,  7522,  7529,  7530,  7559,  7594,  7596,  7598,  7599,  7600
  7950,  8015,  8502,  8503,  8504,  8958,  8960,  9095,  9122,  9129,  9131,  9133,  9143,  9145,  9147,  9167
  9173,  9194,  9195,  9197,  9198,  9199,  9213,  9215,  9217,  9227,  9232,  9247,  9289,  9291,  9331,  9341
  9342,  9344,  9352,  9354,  9356,  9586,  9592,  9600,  9601,  9602,  9616,  9617,  9644,  9646,  9647,  9649
  9651,  9652,  9657,  9666,  9672,  9673,  9675,  9676,  9705,  9740,  9746,  9771,  9772,  9777,  9778,  9786
** ... 8 like lines cut
*Elset, elset=Set-1
  362,  660,  723,  767,  843, 1095, 1096, 1459, 1635, 1640, 1643, 1650, 1666, 1672, 1711, 1719
 1720, 1743, 1762, 1763, 1795, 1839, 1840, 1855, 1920, 1971, 2054, 2347, 2389, 2400, 2403, 2420
 2442, 2470, 2490, 2578, 2581, 2597, 2628, 2629, 3183, 3456, 3579, 3590, 3592, 3634, 3637, 3651
 3709, 3731, 3758, 3763, 3767, 3775, 4011, 4025, 4067, 4069, 4084, 4085, 4116, 4165, 4196, 4203
 4210, 4212, 4222, 4227, 4236, 4241, 4246, 4250, 4254, 4259, 4260, 4261, 4264, 4273, 4283, 4288
 4309, 4318, 4342, 4352, 4357, 4374, 4376, 4379, 4380, 4397, 4408, 4416, 4424, 4436, 4437, 4443
 4452, 4453, 4486, 4492, 4495, 4508, 4511, 4521, 4524, 4530, 4534, 4547, 4551, 4553, 4560, 4566
 4573, 4577, 4579, 4583, 4586, 4587, 4591, 4592, 4597, 4604, 4609, 4612, 4618, 4621, 4625, 4627
 4628, 4656, 4657, 4659, 4668, 4674, 4676, 4681, 4687, 4696, 4700, 4712, 4758, 4762, 4765, 4766
 4806, 4839, 4969, 5020, 5088, 5092, 5117, 5125, 5129, 5140, 5141, 5161, 5185, 5190, 5232, 5239
 5240, 5282, 5286, 5288, 5291, 5321, 5324, 5338, 5356, 5382, 5392, 5403, 5405, 5416, 5495, 5497
 5534, 5636, 5638, 5758, 5818, 5821, 5847, 5849, 6001, 6224, 6227, 6229, 6230, 6231, 6233, 6273
 6277, 6286, 6301, 6380, 6521, 6857, 6966, 6970
*Nset, nset=Set-2
     3,     4,     6,     7,    27,    28,    29,    30,    31,    32,    33,    34,    35,    63,    64,    65
    66,    67,    68,    69,    70,    71,    72,    73,    74,    75,    76,    77,    78,    79,    80,    81
    82,    83,    84,    85,    86,    87,    88,    89,   279,   280,   281,   282,   283,   284,   285,   286
   287,   288,   289,   290,   291,   292,   293,   294,   295,   296,   297,   298,   299,   300,   301,   302
   303,   304,   305,   306,   307,   308,   309,   310,   311,   312,   313,   314,   315,   316,   317,   318
   319,   320,   321,   322,   323,   324,   325,   326,   327,   328,   329,   330,   331,   332,   333,   334
   335,   336,   337,   338,   339,   340,   341,   342,   343,   344,   345,   346,   347,   348,   349,   350
   351,   352,   353,   354,   355,   356,   357,   358,   359,  1749,  1827,  1829,  1831,  2146,  2148,  2150
  2622,  2624,  2626,  2789,  2899,  2901,  2998,  3000,  3002,  3055,  3100,  3102,  3104,  4664,  4747,  4748
  4749,  4823,  4824,  4919,  4921,  4923,  5116,  5266,  5269,  5301,  5303,  5305,  5306,  5308,  5310,  5312
  5314,  5316,  6289,  6301,  6306,  6308,  6433,  6434,  6443,  6451,  6453,  6455,  6578,  6580,  6582,  6618
  6620,  6622,  6650,  6651,  6701,  6705,  6709,  6711,  6713,  6741,  6743,  6745,  6787,  6789,  6791,  6797
  6800,  6803,  6804,  6864,  6941,  6948,  6961,  6970,  6972,  6973,  6978,  6979,  6988,  6990,  6991,  7011
  7451,  7465,  7466,  7468,  7470,  7670,  7672,  7674,  7689,  7762,  7774,  7776,  7778,  7783,  7789,  7790
  7796,  7850,  7851,  7852,  7853,  7866,  7874,  7875,  7877,  7934,  7970,  7972,  7974,  8003,  8009,  8011
  8027,  8044,  8049,  8050,  8054,  8072,  8074,  8076,  8081,  8082,  8091,  8093,  8099,  8100,  8104,  8110
  8119,  8148,  8149,  8160,  8162,  8164,  8213,  8222,  8225,  8232,  8234,  8240,  8241,  8259,  8266,  8305
  8307,  8308,  8317,  8319,  8321,  8331,  8341,  8342,  8359,  8375,  8378,  8380,  8382,  8397,  8400,  8423
  8424,  8436,  8437,  8439,  8460,  8462,  8467,  8469,  8473,  8476,  8477,  8483,  8485,  8506,  8508,  8510
  8512,  8530,  8532,  8533,  8535,  8537,  8545,  8547,  8557,  8559,  8560,  8561,  8563,  8568,  8570,  8571
** ... 8 like lines cut
*Elset, elset=Set-2
   84,  192,  354,  491,  531,  584, 1383, 1437, 1486, 1636, 1646, 1648, 1649, 2004, 2067, 2127
 2140, 2153, 2171, 2175, 2199, 2222, 2227, 2229, 2318, 2322, 2327, 2569, 2671, 2716, 2721, 2758
 2768, 2785, 2847, 2870, 2888, 2894, 2897, 2901, 2923, 2931, 2944, 2948, 2997, 3002, 3005, 3020
 3031, 3039, 3052, 3057, 3065, 3069, 3090, 3093, 3102, 3122, 3126, 3136, 3137, 3145, 3146, 3151
 3156, 3162, 3164, 3172, 3185, 3188, 3189, 3196, 3199, 3200, 3207, 3214, 3215, 3216, 3219, 3220
 3221, 3222, 3227, 3240, 3247, 3255, 3260, 3261, 3274, 3275, 3284, 3286, 3288, 3293, 3300, 3301
 3303, 3306, 3307, 3310, 3326, 3327, 3332, 3334, 3337, 3343, 3348, 3351, 3359, 3364, 3374, 3379
 3388, 3396, 3405, 3408, 3413, 3419, 3422, 3425, 3439, 3444, 3448, 3451, 3453, 3464, 3476, 3477
 3478, 3486, 3488, 3504, 3517, 3689, 3853, 3866, 3887, 3907, 3928, 3941, 3966, 3989, 4021, 4036
 4063, 4072, 4083, 4093, 4104, 4235, 4248, 4315, 4323, 4393, 4431, 4540, 4719, 4721, 4723, 4728
 4742, 4847, 4879, 4889, 4895, 4913, 4951, 4958, 4967, 4981, 5029, 5034, 5050, 5060, 5065, 5067
 5074, 5091, 5318, 5320, 5445, 5692, 5761, 5763, 5767, 5807, 5895, 5898, 5899, 6141, 6208, 6209
 6443, 6455, 6457, 6492, 6672, 6679, 6881, 6899
*Elset, elset=_Surf-1_S3
  362,  660,  723,  767,  843, 1095, 1096, 1459, 1635, 1640, 1643, 1650, 1666, 1672, 1711, 1719
 1720, 1743, 1762, 1763, 1795, 1839, 1840, 1855, 1920, 1971, 2054, 2347, 2389, 2400, 2403, 2420
 2442, 2470, 2490, 2578, 2581, 2628, 2629, 3183, 3456, 3579, 3590, 3592, 3634, 3651, 3709, 3731
 3758, 3763, 3767, 3775, 4011, 4025, 4067, 4069, 4084, 4085, 4116, 4165, 4196, 4203, 4210, 4212
 4222, 4227, 4236, 4241, 4246, 4250, 4254, 4259, 4260, 4261, 4264, 4273, 4283, 4288, 4309, 4318
 4342, 4352, 4357, 4374, 4376, 4379, 4380, 4397, 4408, 4416, 4424, 4436, 4437, 4443, 4452, 4453
 4486, 4492, 4495, 4508, 4511, 4521, 4524, 4530, 4547, 4551, 4553, 4560, 4566, 4573, 4577, 4579
 4586, 4587, 4591, 4592, 4597, 4604, 4609, 4612, 4618, 4621, 4625, 4627, 4628, 4656, 4657, 4659
 4668, 4674, 4676, 4681, 4687, 4696, 4700, 4712, 4758, 4762, 4765, 4766, 4806, 4839, 4969, 5020
 5088, 5092, 5117, 5125, 5129, 5140, 5141, 5185, 5190, 5232, 5239, 5240, 5286, 5288, 5291, 5321
 5324, 5338, 5356, 5382, 5392, 5403, 5405, 5416, 5495, 5497, 5534, 5636, 5638, 5758, 5818, 5821
 5847, 5849, 6001, 6224, 6227, 6229, 6230, 6231, 6233, 6273, 6277, 6286, 6301, 6380, 6521, 6857
 6966, 6970
*Elset, elset=_Surf-1_S1
 2597,
*Elset, elset=_Surf-1_S4
 3637, 4534, 4583, 5161, 5282
*Surface, type=ELEMENT, name=Surf-1
_Surf-1_S3, S3
_Surf-1_S1, S1
_Surf-1_S4, S4
** 
** Section: Section-1
*Solid Section, elset=Set-1, material=MAT1_GRN1
,
*End Part 
**   
** 
** ASSEMBLY 
** 
*Assembly, name=Assembly 
**   
*Instance, name=Part-1-1, part=Part-1 
*End Instance 
** 
*Nset, nset=Set-102, instance=Part-1-1, generate 
    1,  10580, 1 
*Elset, elset=Set-102, instance=Part-1-1, generate 
    1,  7005, 1
*Nset, nset=Hsurface, instance=Part-1-1    
    3,     4,     6,     7,    27,    28,    29,    30,    31,    32,    33,    34,    35,    63,    64,    65
    66,    67,    68,    69,    70,    71,    72,    73,    74,    75,    76,    77,    78,    79,    80,    81
    82,    83,    84,    85,    86,    87,    88,    89,   279,   280,   281,   282,   283,   284,   285,   286
   287,   288,   289,   290,   291,   292,   293,   294,   295,   296,   297,   298,   299,   300,   301,   302
   303,   304,   305,   306,   307,   308,   309,   310,   311,   312,   313,   314,   315,   316,   317,   318
   319,   320,   321,   322,   323,   324,   325,   326,   327,   328,   329,   330,   331,   332,   333,   334
   335,   336,   337,   338,   339,   340,   341,   342,   343,   344,   345,   346,   347,   348,   349,   350
   351,   352,   353,   354,   355,   356,   357,   358,   359,  1749,  1827,  1829,  1831,  2146,  2148,  2150
  2622,  2624,  2626,  2789,  2899,  2901,  2998,  3000,  3002,  3055,  3100,  3102,  3104,  4664,  4747,  4748
  4749,  4823,  4824,  4919,  4921,  4923,  5116,  5266,  5269,  5301,  5303,  5305,  5306,  5308,  5310,  5312
  5314,  5316,  6289,  6301,  6306,  6308,  6433,  6434,  6443,  6451,  6453,  6455,  6578,  6580,  6582,  6618
  6620,  6622,  6650,  6651,  6701,  6705,  6709,  6711,  6713,  6741,  6743,  6745,  6787,  6789,  6791,  6797
  6800,  6803,  6804,  6864,  6941,  6948,  6961,  6970,  6972,  6973,  6978,  6979,  6988,  6990,  6991,  7011
  7451,  7465,  7466,  7468,  7470,  7670,  7672,  7674,  7689,  7762,  7774,  7776,  7778,  7783,  7789,  7790
  7796,  7850,  7851,  7852,  7853,  7866,  7874,  7875,  7877,  7934,  7970,  7972,  7974,  8003,  8009,  8011
  8027,  8044,  8049,  8050,  8054,  8072,  8074,  8076,  8081,  8082,  8091,  8093,  8099,  8100,  8104,  8110
  8119,  8148,  8149,  8160,  8162,  8164,  8213,  8222,  8225,  8232,  8234,  8240,  8241,  8259,  8266,  8305
  8307,  8308,  8317,  8319,  8321,  8331,  8341,  8342,  8359,  8375,  8378,  8380,  8382,  8397,  8400,  8423
  8424,  8436,  8437,  8439,  8460,  8462,  8467,  8469,  8473,  8476,  8477,  8483,  8485,  8506,  8508,  8510
  8512,  8530,  8532,  8533,  8535,  8537,  8545,  8547,  8557,  8559,  8560,  8561,  8563,  8568,  8570,  8571
** ... 8 like lines cut
 *Nset, nset=Set-1, instance=Part-1-1
     1,     2,     5,     8,     9,    10,    11,    12,    13,    14,    15,    16,    17,    45,    46,    47
    48,    49,    50,    51,    52,    53,    90,    91,    92,    93,    94,    95,    96,    97,    98,   108
   109,   110,   111,   112,   113,   114,   115,   116,   441,   442,   443,   444,   445,   446,   447,   448
   449,   450,   451,   452,   453,   454,   455,   456,   457,   458,   459,   460,   461,   462,   463,   464
   465,   466,   467,   468,   469,   470,   471,   472,   473,   474,   475,   476,   477,   478,   479,   480
   481,   482,   483,   484,   485,   486,   487,   488,   489,   490,   491,   492,   493,   494,   495,   496
   497,   498,   499,   500,   501,   502,   503,   504,   505,   506,   507,   508,   509,   510,   511,   512
   513,   514,   515,   516,   517,   518,   519,   520,   521,  1700,  1940,  2241,  2388,  2648,  2650,  2652
  3280,  3282,  3284,  3444,  3446,  3448,  3556,  3557,  3559,  3717,  3718,  3833,  3892,  4262,  4264,  4266
  4268,  4270,  4272,  4304,  4421,  4484,  4515,  4860,  4862,  4864,  5261,  5263,  5264,  5284,  5286,  5289
  5291,  5293,  5318,  5320,  5322,  5367,  5369,  5371,  5381,  5383,  5385,  5410,  5428,  5462,  5484,  5495
  5498,  5499,  5500,  5520,  5522,  5524,  5550,  5572,  5592,  5594,  5596,  5614,  5642,  5653,  5655,  5657
  5659,  5660,  5662,  5664,  5708,  5743,  5745,  5747,  5752,  5775,  5794,  5862,  5864,  5865,  5867,  5900
  5902,  5904,  6080,  6082,  6083,  6138,  6197,  6421,  6423,  6425,  7026,  7030,  7090,  7091,  7120,  7121
  7123,  7127,  7160,  7162,  7164,  7203,  7217,  7219,  7221,  7234,  7261,  7302,  7304,  7306,  7334,  7335
  7337,  7367,  7413,  7489,  7490,  7501,  7503,  7522,  7529,  7530,  7559,  7594,  7596,  7598,  7599,  7600
  7950,  8015,  8502,  8503,  8504,  8958,  8960,  9095,  9122,  9129,  9131,  9133,  9143,  9145,  9147,  9167
  9173,  9194,  9195,  9197,  9198,  9199,  9213,  9215,  9217,  9227,  9232,  9247,  9289,  9291,  9331,  9341
  9342,  9344,  9352,  9354,  9356,  9586,  9592,  9600,  9601,  9602,  9616,  9617,  9644,  9646,  9647,  9649
  9651,  9652,  9657,  9666,  9672,  9673,  9675,  9676,  9705,  9740,  9746,  9771,  9772,  9777,  9778,  9786
** ... 8 like lines cut
*Elset, elset=Set-1, instance=Part-1-1
  362,  660,  723,  767,  843, 1095, 1096, 1459, 1635, 1640, 1643, 1650, 1666, 1672, 1711, 1719
 1720, 1743, 1762, 1763, 1795, 1839, 1840, 1855, 1920, 1971, 2054, 2347, 2389, 2400, 2403, 2420
 2442, 2470, 2490, 2578, 2581, 2597, 2628, 2629, 3183, 3456, 3579, 3590, 3592, 3634, 3637, 3651
 3709, 3731, 3758, 3763, 3767, 3775, 4011, 4025, 4067, 4069, 4084, 4085, 4116, 4165, 4196, 4203
 4210, 4212, 4222, 4227, 4236, 4241, 4246, 4250, 4254, 4259, 4260, 4261, 4264, 4273, 4283, 4288
 4309, 4318, 4342, 4352, 4357, 4374, 4376, 4379, 4380, 4397, 4408, 4416, 4424, 4436, 4437, 4443
 4452, 4453, 4486, 4492, 4495, 4508, 4511, 4521, 4524, 4530, 4534, 4547, 4551, 4553, 4560, 4566
 4573, 4577, 4579, 4583, 4586, 4587, 4591, 4592, 4597, 4604, 4609, 4612, 4618, 4621, 4625, 4627
 4628, 4656, 4657, 4659, 4668, 4674, 4676, 4681, 4687, 4696, 4700, 4712, 4758, 4762, 4765, 4766
 4806, 4839, 4969, 5020, 5088, 5092, 5117, 5125, 5129, 5140, 5141, 5161, 5185, 5190, 5232, 5239
 5240, 5282, 5286, 5288, 5291, 5321, 5324, 5338, 5356, 5382, 5392, 5403, 5405, 5416, 5495, 5497
 5534, 5636, 5638, 5758, 5818, 5821, 5847, 5849, 6001, 6224, 6227, 6229, 6230, 6231, 6233, 6273
 6277, 6286, 6301, 6380, 6521, 6857, 6966, 6970
*Nset, nset=Set-2, instance=Part-1-1
     3,     4,     6,     7,    27,    28,    29,    30,    31,    32,    33,    34,    35,    63,    64,    65
    66,    67,    68,    69,    70,    71,    72,    73,    74,    75,    76,    77,    78,    79,    80,    81
    82,    83,    84,    85,    86,    87,    88,    89,   279,   280,   281,   282,   283,   284,   285,   286
   287,   288,   289,   290,   291,   292,   293,   294,   295,   296,   297,   298,   299,   300,   301,   302
   303,   304,   305,   306,   307,   308,   309,   310,   311,   312,   313,   314,   315,   316,   317,   318
   319,   320,   321,   322,   323,   324,   325,   326,   327,   328,   329,   330,   331,   332,   333,   334
   335,   336,   337,   338,   339,   340,   341,   342,   343,   344,   345,   346,   347,   348,   349,   350
   351,   352,   353,   354,   355,   356,   357,   358,   359,  1749,  1827,  1829,  1831,  2146,  2148,  2150
  2622,  2624,  2626,  2789,  2899,  2901,  2998,  3000,  3002,  3055,  3100,  3102,  3104,  4664,  4747,  4748
  4749,  4823,  4824,  4919,  4921,  4923,  5116,  5266,  5269,  5301,  5303,  5305,  5306,  5308,  5310,  5312
  5314,  5316,  6289,  6301,  6306,  6308,  6433,  6434,  6443,  6451,  6453,  6455,  6578,  6580,  6582,  6618
  6620,  6622,  6650,  6651,  6701,  6705,  6709,  6711,  6713,  6741,  6743,  6745,  6787,  6789,  6791,  6797
  6800,  6803,  6804,  6864,  6941,  6948,  6961,  6970,  6972,  6973,  6978,  6979,  6988,  6990,  6991,  7011
  7451,  7465,  7466,  7468,  7470,  7670,  7672,  7674,  7689,  7762,  7774,  7776,  7778,  7783,  7789,  7790
  7796,  7850,  7851,  7852,  7853,  7866,  7874,  7875,  7877,  7934,  7970,  7972,  7974,  8003,  8009,  8011
  8027,  8044,  8049,  8050,  8054,  8072,  8074,  8076,  8081,  8082,  8091,  8093,  8099,  8100,  8104,  8110
  8119,  8148,  8149,  8160,  8162,  8164,  8213,  8222,  8225,  8232,  8234,  8240,  8241,  8259,  8266,  8305
  8307,  8308,  8317,  8319,  8321,  8331,  8341,  8342,  8359,  8375,  8378,  8380,  8382,  8397,  8400,  8423
  8424,  8436,  8437,  8439,  8460,  8462,  8467,  8469,  8473,  8476,  8477,  8483,  8485,  8506,  8508,  8510
  8512,  8530,  8532,  8533,  8535,  8537,  8545,  8547,  8557,  8559,  8560,  8561,  8563,  8568,  8570,  8571
** ... 8 like lines cut
*Elset, elset=Set-2, instance=Part-1-1
   84,  192,  354,  491,  531,  584, 1383, 1437, 1486, 1636, 1646, 1648, 1649, 2004, 2067, 2127
 2140, 2153, 2171, 2175, 2199, 2222, 2227, 2229, 2318, 2322, 2327, 2569, 2671, 2716, 2721, 2758
 2768, 2785, 2847, 2870, 2888, 2894, 2897, 2901, 2923, 2931, 2944, 2948, 2997, 3002, 3005, 3020
 3031, 3039, 3052, 3057, 3065, 3069, 3090, 3093, 3102, 3122, 3126, 3136, 3137, 3145, 3146, 3151
 3156, 3162, 3164, 3172, 3185, 3188, 3189, 3196, 3199, 3200, 3207, 3214, 3215, 3216, 3219, 3220
 3221, 3222, 3227, 3240, 3247, 3255, 3260, 3261, 3274, 3275, 3284, 3286, 3288, 3293, 3300, 3301
 3303, 3306, 3307, 3310, 3326, 3327, 3332, 3334, 3337, 3343, 3348, 3351, 3359, 3364, 3374, 3379
 3388, 3396, 3405, 3408, 3413, 3419, 3422, 3425, 3439, 3444, 3448, 3451, 3453, 3464, 3476, 3477
 3478, 3486, 3488, 3504, 3517, 3689, 3853, 3866, 3887, 3907, 3928, 3941, 3966, 3989, 4021, 4036
 4063, 4072, 4083, 4093, 4104, 4235, 4248, 4315, 4323, 4393, 4431, 4540, 4719, 4721, 4723, 4728
 4742, 4847, 4879, 4889, 4895, 4913, 4951, 4958, 4967, 4981, 5029, 5034, 5050, 5060, 5065, 5067
 5074, 5091, 5318, 5320, 5445, 5692, 5761, 5763, 5767, 5807, 5895, 5898, 5899, 6141, 6208, 6209
 6443, 6455, 6457, 6492, 6672, 6679, 6881, 6899
*Elset, elset=_Surf-1_S3, instance=Part-1-1
  362,  660,  723,  767,  843, 1095, 1096, 1459, 1635, 1640, 1643, 1650, 1666, 1672, 1711, 1719
 1720, 1743, 1762, 1763, 1795, 1839, 1840, 1855, 1920, 1971, 2054, 2347, 2389, 2400, 2403, 2420
 2442, 2470, 2490, 2578, 2581, 2628, 2629, 3183, 3456, 3579, 3590, 3592, 3634, 3651, 3709, 3731
 3758, 3763, 3767, 3775, 4011, 4025, 4067, 4069, 4084, 4085, 4116, 4165, 4196, 4203, 4210, 4212
 4222, 4227, 4236, 4241, 4246, 4250, 4254, 4259, 4260, 4261, 4264, 4273, 4283, 4288, 4309, 4318
 4342, 4352, 4357, 4374, 4376, 4379, 4380, 4397, 4408, 4416, 4424, 4436, 4437, 4443, 4452, 4453
 4486, 4492, 4495, 4508, 4511, 4521, 4524, 4530, 4547, 4551, 4553, 4560, 4566, 4573, 4577, 4579
 4586, 4587, 4591, 4592, 4597, 4604, 4609, 4612, 4618, 4621, 4625, 4627, 4628, 4656, 4657, 4659
 4668, 4674, 4676, 4681, 4687, 4696, 4700, 4712, 4758, 4762, 4765, 4766, 4806, 4839, 4969, 5020
 5088, 5092, 5117, 5125, 5129, 5140, 5141, 5185, 5190, 5232, 5239, 5240, 5286, 5288, 5291, 5321
 5324, 5338, 5356, 5382, 5392, 5403, 5405, 5416, 5495, 5497, 5534, 5636, 5638, 5758, 5818, 5821
 5847, 5849, 6001, 6224, 6227, 6229, 6230, 6231, 6233, 6273, 6277, 6286, 6301, 6380, 6521, 6857
 6966, 6970
*Elset, elset=_Surf-1_S1, instance=Part-1-1
 2597,
*Elset, elset=_Surf-1_S4, instance=Part-1-1
 3637, 4534, 4583, 5161, 5282
*Surface, type=ELEMENT, name=Surf-1
_Surf-1_S3, S3
_Surf-1_S1, S1
_Surf-1_S4, S4
** 
**
**
*End Assembly 
*Amplitude, name=Amp-1 
             0.,              0.,              1.,            0.05 
**   
** MATERIALS 
**  
*Material, name=MAT1_GRN1
*Density
1., 
*Depvar 
     76, 
*User Material, constants=2, type=MECHANICAL 
768.,1. 
*User Material, constants=8, type=THERMAL
0.01271, 4, 20.2e6, 0., 58.6e6, 8.464e13, 11.5e6, 8.464e17
***********************************************  
** ----------------------------------------------------------------
**  
** PREDEFINED FIELDS
** 
** Name: Predefined Field-1   Type: Temperature
*Initial Conditions, type=TEMPERATURE
Set-102, 2.659e11
** ----------------------------------------------------------------
** 
** STEP: Step-1
**  
*Step, name=Step-1, nlgeom=YES, inc=10000, unsymm=YES, amplitude=RAMP
*Coupled Temperature-displacement, creep=none, deltmx=1e13
0.00001, 1., 1e-25, 0.001
**Controls, parameters=TIME INCREMENTATION
**2,10,1E-10,0.01
** 
** BOUNDARY CONDITIONS
** 
** Name: BC-1 Type: Symmetry/Antisymmetry/Encastre
*Boundary, amplitude=Amp-1
Set-2, ENCASTRE
** Name: SurfaceH Type: Temperature
*Boundary, amplitude=Amp-1
Hsurface, 11, 11, 2.659e13 
** 
** LOADS
** 
** Name: Load-1   Type: Pressure
*Dsload
Surf-1, P, -0.1
** 
**  
** OUTPUT REQUESTS 
**  
*Restart, write, frequency=0 
**  
** FIELD OUTPUT: F-Output-1 
**  
*Output, field, frequency=2 
*Node Output 
CF, RF, U 
**  
** FIELD OUTPUT: F-Output-2 
**  
*Element Output, directions=YES 
S, SDV
*Output, history, frequency=0 
*End Step 
