 Abaqus/Standard 2024                  DATE 11-Jun-2025 TIME 09:08:40
 SUMMARY OF JOB INFORMATION:
 STEP  INC ATT SEVERE EQUIL TOTAL  TOTAL      STEP       INC OF       DOF    IF
               DISCON ITERS ITERS  TIME/    TIME/LPF    TIME/LPF    MONITOR RIKS
               ITERS               FREQ
   1     1   1     0     2     2  1.00e-05   1.00e-05   1.000e-05 
