1

   Abaqus 2024                                  Date 02-Jun-2025   Time 13:48:36
   For use by UNIVERSITY OF WYOMING under license from Dassault Systemes or its subsidiary.



                         The Abaqus Software is a product of:

                           Dassault Systemes SIMULIA Corp.
                           1301 Atwood Avenue, Suite 101W
                              Johnston, RI 02919, USA
 


                   The Abaqus Software is available only under license
                   from Dassault Systemes or its subsidiary and may be
                   used or reproduced only in accordance with the terms
                   of such license.
 
                          On machine dhcp-10-132-10-107 
                          you are authorized to run
                          Abaqus/Standard until 14-Aug-2025

                          Your site id is: 200000000026686 


 
                    For assistance or any other information you may
                    obtain contact information for your local office
                    from the world wide web at:

                      https://www.3ds.com/products-services/simulia/services-support/

 
                * * * * * * * * * * * * * * * * * * * * * * * * * * * * * * 
                *                                                         * 
                *                   *****************                     * 
                *                   *  N O T I C E  *                     * 
                *                   *****************                     * 
                *                                                         * 
                *                                                         * 
                *                       Abaqus 2024                       * 
                *                                                         * 
                *       BUILD ID: 2023_09_21-06.55.25 RELr426 190762      * 
                *                                                         * 
                *                                                         * 
                *  Please make sure you are using                         * 
                *  release Abaqus 2024 manuals                            * 
                *  plus the notes accompanying this release.              * 
                *                                                         * 
                *                                                         * 
                *                                                         * 
                *                                                         * 
                *                                                         * 
                *   This program may not be used for commercial purposes  * 
                *           without payment of a commercial fee.          * 
                *                                                         * 
                * * * * * * * * * * * * * * * * * * * * * * * * * * * * * * 


 



     PROCESSING PART, INSTANCE, AND ASSEMBLY INFORMATION
   *******************************************************


 ***ERROR: in keyword *ELEMENT, file "tension_1.inp", line 1692: Too few nodes 
           for element(s) of type "C3D10T" : 1, 2, 3, 4, 5, 6, 7, 8, 9, 10, 11, 
           12, 13, 14, 15, 16, 17, 18, 19, 20, 21, 22, 23, 24, 25, 26, 27, 28, 
           29, 30, 31, 32, 33, 34, 35, 36, 37, 38, 39, 40, 41, 42, 43, 44, 45, 
           46, 47, 48, 49, 50, 51, 52, 53, 54, 55, 56, 57, 58, 59, 60, 61, 62, 
           63, 64, 65, 66, 67, 68, 69, 70, 71, 72, 73, 74, 75, 76, 77, 78, 79, 
           80, 81, 82, 83, 84, 85, 86, 87, 88, 89, 90, 91, 92, 93, 94, 95,
 ***NOTE: DUE TO AN INPUT ERROR THE ANALYSIS PRE-PROCESSOR HAS BEEN UNABLE TO 
          INTERPRET SOME DATA.  SUBSEQUENT ERRORS MAY BE CAUSED BY THIS OMISSION

 ***NOTE: Error message is too long. It has been truncated.

     END PROCESSING PART, INSTANCE, AND ASSEMBLY INFORMATION
   ***********************************************************




     OPTIONS BEING PROCESSED
   ***************************


  *Heading
          OneFifthMesh-periodic                                                                                                                                                                                                                                                                                                                                                                                                                                                                                                           
  *Element, type=C3D10T

 ***ERROR: ELEMENT 1 INSTANCE PART-1-1 NODE NUMBERS MUST BE POSITIVE.
 LINE IMAGE: 1, 820, 821, 822, 823

 ***ERROR: ELEMENT 2 INSTANCE PART-1-1 NODE NUMBERS MUST BE POSITIVE.
 LINE IMAGE: 2, 285, 822, 824, 825

 ***ERROR: ELEMENT 3 INSTANCE PART-1-1 NODE NUMBERS MUST BE POSITIVE.
 LINE IMAGE: 3, 826, 827, 828, 292

 ***ERROR: ELEMENT 4 INSTANCE PART-1-1 NODE NUMBERS MUST BE POSITIVE.
 LINE IMAGE: 4, 820, 825, 829, 830

 ***ERROR: ELEMENT 5 INSTANCE PART-1-1 NODE NUMBERS MUST BE POSITIVE.
 LINE IMAGE: 5, 820, 831, 832, 833

 ***ERROR: ELEMENT 6 INSTANCE PART-1-1 NODE NUMBERS MUST BE POSITIVE.
 LINE IMAGE: 6, 820, 825, 822, 829

 ***ERROR: ELEMENT 7 INSTANCE PART-1-1 NODE NUMBERS MUST BE POSITIVE.
 LINE IMAGE: 7, 820, 821, 831, 833

 ***ERROR: ELEMENT 8 INSTANCE PART-1-1 NODE NUMBERS MUST BE POSITIVE.
 LINE IMAGE: 8, 834, 835, 836, 837

 ***ERROR: ELEMENT 9 INSTANCE PART-1-1 NODE NUMBERS MUST BE POSITIVE.
 LINE IMAGE: 9, 834, 838, 839, 840

 ***ERROR: ELEMENT 10 INSTANCE PART-1-1 NODE NUMBERS MUST BE POSITIVE.
 LINE IMAGE: 10, 834, 841, 842, 843

 ***ERROR: ELEMENT 11 INSTANCE PART-1-1 NODE NUMBERS MUST BE POSITIVE.
 LINE IMAGE: 11, 834, 841, 843, 836

 ***ERROR: ELEMENT 12 INSTANCE PART-1-1 NODE NUMBERS MUST BE POSITIVE.
 LINE IMAGE: 12, 834, 836, 844, 837

 ***ERROR: ELEMENT 13 INSTANCE PART-1-1 NODE NUMBERS MUST BE POSITIVE.
 LINE IMAGE: 13, 834, 840, 839, 845

 ***ERROR: ELEMENT 14 INSTANCE PART-1-1 NODE NUMBERS MUST BE POSITIVE.
 LINE IMAGE: 14, 834, 845, 844, 842

 ***ERROR: ELEMENT 15 INSTANCE PART-1-1 NODE NUMBERS MUST BE POSITIVE.
 LINE IMAGE: 15, 846, 830, 847, 835

 ***ERROR: ELEMENT 16 INSTANCE PART-1-1 NODE NUMBERS MUST BE POSITIVE.
 LINE IMAGE: 16, 830, 847, 835, 848

 ***ERROR: ELEMENT 17 INSTANCE PART-1-1 NODE NUMBERS MUST BE POSITIVE.
 LINE IMAGE: 17, 848, 849, 830, 850

 ***ERROR: ELEMENT 18 INSTANCE PART-1-1 NODE NUMBERS MUST BE POSITIVE.
 LINE IMAGE: 18, 848, 851, 835, 852

 ***ERROR: ELEMENT 19 INSTANCE PART-1-1 NODE NUMBERS MUST BE POSITIVE.
 LINE IMAGE: 19, 848, 853, 854, 855

 ***ERROR: ELEMENT 20 INSTANCE PART-1-1 NODE NUMBERS MUST BE POSITIVE.
 LINE IMAGE: 20, 856, 857, 853, 858

 ***ERROR: ELEMENT 21 INSTANCE PART-1-1 NODE NUMBERS MUST BE POSITIVE.
 LINE IMAGE: 21, 823, 822, 285, 284

 ***ERROR: ELEMENT 22 INSTANCE PART-1-1 NODE NUMBERS MUST BE POSITIVE.
 LINE IMAGE: 22, 856, 853, 859, 858

 ***ERROR: ELEMENT 23 INSTANCE PART-1-1 NODE NUMBERS MUST BE POSITIVE.
 LINE IMAGE: 23, 834, 838, 856, 839

 ***ERROR: ELEMENT 24 INSTANCE PART-1-1 NODE NUMBERS MUST BE POSITIVE.
 LINE IMAGE: 24, 856, 830, 857, 832

 ***ERROR: ELEMENT 25 INSTANCE PART-1-1 NODE NUMBERS MUST BE POSITIVE.
 LINE IMAGE: 25, 849, 825, 830, 829

 ***ERROR: ELEMENT 26 INSTANCE PART-1-1 NODE NUMBERS MUST BE POSITIVE.
 LINE IMAGE: 26, 856, 849, 857, 830

 ***ERROR: ELEMENT 27 INSTANCE PART-1-1 NODE NUMBERS MUST BE POSITIVE.
 LINE IMAGE: 27, 849, 860, 861, 862

 ***ERROR: ELEMENT 28 INSTANCE PART-1-1 NODE NUMBERS MUST BE POSITIVE.
 LINE IMAGE: 28, 849, 825, 861, 863

 ***ERROR: ELEMENT 29 INSTANCE PART-1-1 NODE NUMBERS MUST BE POSITIVE.
 LINE IMAGE: 29, 825, 829, 281, 822

 ***ERROR: ELEMENT 30 INSTANCE PART-1-1 NODE NUMBERS MUST BE POSITIVE.
 LINE IMAGE: 30, 864, 865, 866, 306

 ***ERROR: ELEMENT 31 INSTANCE PART-1-1 NODE NUMBERS MUST BE POSITIVE.
 LINE IMAGE: 31, 867, 829, 281, 861

 ***ERROR: ELEMENT 32 INSTANCE PART-1-1 NODE NUMBERS MUST BE POSITIVE.
 LINE IMAGE: 32, 829, 281, 861, 825

 ***ERROR: ELEMENT 33 INSTANCE PART-1-1 NODE NUMBERS MUST BE POSITIVE.
 LINE IMAGE: 33, 857, 868, 869, 838

 ***ERROR: ELEMENT 34 INSTANCE PART-1-1 NODE NUMBERS MUST BE POSITIVE.
 LINE IMAGE: 34, 857, 838, 870, 868

 ***ERROR: ELEMENT 35 INSTANCE PART-1-1 NODE NUMBERS MUST BE POSITIVE.
 LINE IMAGE: 35, 871, 857, 868, 869

 ***ERROR: ELEMENT 36 INSTANCE PART-1-1 NODE NUMBERS MUST BE POSITIVE.
 LINE IMAGE: 36, 857, 858, 838, 869

 ***ERROR: ELEMENT 37 INSTANCE PART-1-1 NODE NUMBERS MUST BE POSITIVE.
 LINE IMAGE: 37, 857, 871, 287, 858

 ***ERROR: ELEMENT 38 INSTANCE PART-1-1 NODE NUMBERS MUST BE POSITIVE.
 LINE IMAGE: 38, 857, 871, 286, 287

 ***ERROR: ELEMENT 39 INSTANCE PART-1-1 NODE NUMBERS MUST BE POSITIVE.
 LINE IMAGE: 39, 856, 857, 858, 838

 ***ERROR: ELEMENT 40 INSTANCE PART-1-1 NODE NUMBERS MUST BE POSITIVE.
 LINE IMAGE: 40, 863, 849, 857, 853

 ***ERROR: ELEMENT 41 INSTANCE PART-1-1 NODE NUMBERS MUST BE POSITIVE.
 LINE IMAGE: 41, 866, 872, 334, 831

 ***ERROR: ELEMENT 42 INSTANCE PART-1-1 NODE NUMBERS MUST BE POSITIVE.
 LINE IMAGE: 42, 863, 279, 283, 278

 ***ERROR: ELEMENT 43 INSTANCE PART-1-1 NODE NUMBERS MUST BE POSITIVE.
 LINE IMAGE: 43, 820, 830, 833, 832

 ***ERROR: ELEMENT 44 INSTANCE PART-1-1 NODE NUMBERS MUST BE POSITIVE.
 LINE IMAGE: 44, 820, 833, 822, 821

 ***ERROR: ELEMENT 45 INSTANCE PART-1-1 NODE NUMBERS MUST BE POSITIVE.
 LINE IMAGE: 45, 831, 821, 873, 864

 ***ERROR: ELEMENT 46 INSTANCE PART-1-1 NODE NUMBERS MUST BE POSITIVE.
 LINE IMAGE: 46, 874, 875, 339, 338

 ***ERROR: ELEMENT 47 INSTANCE PART-1-1 NODE NUMBERS MUST BE POSITIVE.
 LINE IMAGE: 47, 831, 872, 841, 866

 ***ERROR: ELEMENT 48 INSTANCE PART-1-1 NODE NUMBERS MUST BE POSITIVE.
 LINE IMAGE: 48, 820, 831, 821, 875

 ***ERROR: ELEMENT 49 INSTANCE PART-1-1 NODE NUMBERS MUST BE POSITIVE.
 LINE IMAGE: 49, 831, 821, 875, 873

 ***ERROR: ELEMENT 50 INSTANCE PART-1-1 NODE NUMBERS MUST BE POSITIVE.
 LINE IMAGE: 50, 831, 875, 334, 866

 ***ERROR: ELEMENT 51 INSTANCE PART-1-1 NODE NUMBERS MUST BE POSITIVE.
 LINE IMAGE: 51, 876, 283, 54, 53

 ***ERROR: ELEMENT 52 INSTANCE PART-1-1 NODE NUMBERS MUST BE POSITIVE.
 LINE IMAGE: 52, 848, 856, 830, 849

 ***ERROR: ELEMENT 53 INSTANCE PART-1-1 NODE NUMBERS MUST BE POSITIVE.
 LINE IMAGE: 53, 849, 857, 853, 856

 ***ERROR: ELEMENT 54 INSTANCE PART-1-1 NODE NUMBERS MUST BE POSITIVE.
 LINE IMAGE: 54, 820, 830, 829, 833

 ***ERROR: ELEMENT 55 INSTANCE PART-1-1 NODE NUMBERS MUST BE POSITIVE.
 LINE IMAGE: 55, 830, 829, 833, 877

 ***ERROR: ELEMENT 56 INSTANCE PART-1-1 NODE NUMBERS MUST BE POSITIVE.
 LINE IMAGE: 56, 848, 856, 835, 830

 ***ERROR: ELEMENT 57 INSTANCE PART-1-1 NODE NUMBERS MUST BE POSITIVE.
 LINE IMAGE: 57, 849, 825, 863, 857

 ***ERROR: ELEMENT 58 INSTANCE PART-1-1 NODE NUMBERS MUST BE POSITIVE.
 LINE IMAGE: 58, 849, 829, 850, 862

 ***ERROR: ELEMENT 59 INSTANCE PART-1-1 NODE NUMBERS MUST BE POSITIVE.
 LINE IMAGE: 59, 848, 850, 830, 847

 ***ERROR: ELEMENT 60 INSTANCE PART-1-1 NODE NUMBERS MUST BE POSITIVE.
 LINE IMAGE: 60, 830, 850, 829, 877

 ***ERROR: ELEMENT 61 INSTANCE PART-1-1 NODE NUMBERS MUST BE POSITIVE.
 LINE IMAGE: 61, 867, 276, 281, 280

 ***ERROR: ELEMENT 62 INSTANCE PART-1-1 NODE NUMBERS MUST BE POSITIVE.
 LINE IMAGE: 62, 834, 844, 843, 842

 ***ERROR: ELEMENT 63 INSTANCE PART-1-1 NODE NUMBERS MUST BE POSITIVE.
 LINE IMAGE: 63, 854, 848, 855, 253

 ***ERROR: ELEMENT 64 INSTANCE PART-1-1 NODE NUMBERS MUST BE POSITIVE.
 LINE IMAGE: 64, 878, 60, 288, 59

 ***ERROR: ELEMENT 65 INSTANCE PART-1-1 NODE NUMBERS MUST BE POSITIVE.
 LINE IMAGE: 65, 856, 858, 859, 838

 ***ERROR: ELEMENT 66 INSTANCE PART-1-1 NODE NUMBERS MUST BE POSITIVE.
 LINE IMAGE: 66, 848, 853, 855, 852

 ***ERROR: ELEMENT 67 INSTANCE PART-1-1 NODE NUMBERS MUST BE POSITIVE.
 LINE IMAGE: 67, 853, 854, 855, 879

 ***ERROR: ELEMENT 68 INSTANCE PART-1-1 NODE NUMBERS MUST BE POSITIVE.
 LINE IMAGE: 68, 853, 854, 879, 863

 ***ERROR: ELEMENT 69 INSTANCE PART-1-1 NODE NUMBERS MUST BE POSITIVE.
 LINE IMAGE: 69, 853, 264, 880, 879

 ***ERROR: ELEMENT 70 INSTANCE PART-1-1 NODE NUMBERS MUST BE POSITIVE.
 LINE IMAGE: 70, 853, 859, 265, 852

 ***ERROR: ELEMENT 71 INSTANCE PART-1-1 NODE NUMBERS MUST BE POSITIVE.
 LINE IMAGE: 71, 853, 261, 855, 852

 ***ERROR: ELEMENT 72 INSTANCE PART-1-1 NODE NUMBERS MUST BE POSITIVE.
 LINE IMAGE: 72, 881, 846, 882, 847

 ***ERROR: ELEMENT 73 INSTANCE PART-1-1 NODE NUMBERS MUST BE POSITIVE.
 LINE IMAGE: 73, 853, 852, 265, 261

 ***ERROR: ELEMENT 74 INSTANCE PART-1-1 NODE NUMBERS MUST BE POSITIVE.
 LINE IMAGE: 74, 853, 265, 858, 264

 ***ERROR: ELEMENT 75 INSTANCE PART-1-1 NODE NUMBERS MUST BE POSITIVE.
 LINE IMAGE: 75, 835, 881, 847, 846

 ***ERROR: ELEMENT 76 INSTANCE PART-1-1 NODE NUMBERS MUST BE POSITIVE.
 LINE IMAGE: 76, 834, 883, 835, 832

 ***ERROR: ELEMENT 77 INSTANCE PART-1-1 NODE NUMBERS MUST BE POSITIVE.
 LINE IMAGE: 77, 877, 882, 884, 885

 ***ERROR: ELEMENT 78 INSTANCE PART-1-1 NODE NUMBERS MUST BE POSITIVE.
 LINE IMAGE: 78, 885, 846, 886, 883

 ***ERROR: ELEMENT 79 INSTANCE PART-1-1 NODE NUMBERS MUST BE POSITIVE.
 LINE IMAGE: 79, 885, 295, 887, 888

 ***ERROR: ELEMENT 80 INSTANCE PART-1-1 NODE NUMBERS MUST BE POSITIVE.
 LINE IMAGE: 80, 885, 295, 888, 294

 ***ERROR: ELEMENT 81 INSTANCE PART-1-1 NODE NUMBERS MUST BE POSITIVE.
 LINE IMAGE: 81, 834, 856, 835, 839

 ***ERROR: ELEMENT 82 INSTANCE PART-1-1 NODE NUMBERS MUST BE POSITIVE.
 LINE IMAGE: 82, 849, 829, 862, 861

 ***ERROR: ELEMENT 83 INSTANCE PART-1-1 NODE NUMBERS MUST BE POSITIVE.
 LINE IMAGE: 83, 829, 826, 889, 877

 ***ERROR: ELEMENT 84 INSTANCE PART-1-1 NODE NUMBERS MUST BE POSITIVE.
 LINE IMAGE: 84, 820, 821, 823, 875

 ***ERROR: ELEMENT 85 INSTANCE PART-1-1 NODE NUMBERS MUST BE POSITIVE.
 LINE IMAGE: 85, 830, 846, 877, 833

 ***ERROR: ELEMENT 86 INSTANCE PART-1-1 NODE NUMBERS MUST BE POSITIVE.
 LINE IMAGE: 86, 254, 848, 851, 847

 ***ERROR: ELEMENT 87 INSTANCE PART-1-1 NODE NUMBERS MUST BE POSITIVE.
 LINE IMAGE: 87, 829, 833, 877, 889

 ***ERROR: ELEMENT 88 INSTANCE PART-1-1 NODE NUMBERS MUST BE POSITIVE.
 LINE IMAGE: 88, 836, 317, 843, 318

 ***ERROR: ELEMENT 89 INSTANCE PART-1-1 NODE NUMBERS MUST BE POSITIVE.
 LINE IMAGE: 89, 836, 886, 883, 890

 ***ERROR: ELEMENT 90 INSTANCE PART-1-1 NODE NUMBERS MUST BE POSITIVE.
 LINE IMAGE: 90, 836, 890, 317, 313

 ***ERROR: ELEMENT 91 INSTANCE PART-1-1 NODE NUMBERS MUST BE POSITIVE.
 LINE IMAGE: 91, 835, 891, 314, 837

 ***ERROR: ELEMENT 92 INSTANCE PART-1-1 NODE NUMBERS MUST BE POSITIVE.
 LINE IMAGE: 92, 836, 843, 844, 318

 ***ERROR: ELEMENT 93 INSTANCE PART-1-1 NODE NUMBERS MUST BE POSITIVE.
 LINE IMAGE: 93, 834, 832, 841, 883

 ***ERROR: ELEMENT 94 INSTANCE PART-1-1 NODE NUMBERS MUST BE POSITIVE.
 LINE IMAGE: 94, 841, 833, 832, 831

 ***ERROR: ELEMENT 95 INSTANCE PART-1-1 NODE NUMBERS MUST BE POSITIVE.
 LINE IMAGE: 95, 831, 892, 833, 864

 ***ERROR: ELEMENT 96 INSTANCE PART-1-1 NODE NUMBERS MUST BE POSITIVE.
 LINE IMAGE: 96, 830, 847, 850, 846

 ***ERROR: ELEMENT 97 INSTANCE PART-1-1 NODE NUMBERS MUST BE POSITIVE.
 LINE IMAGE: 97, 825, 281, 861, 282

 ***ERROR: ELEMENT 98 INSTANCE PART-1-1 NODE NUMBERS MUST BE POSITIVE.
 LINE IMAGE: 98, 841, 866, 893, 894

 ***ERROR: ELEMENT 99 INSTANCE PART-1-1 NODE NUMBERS MUST BE POSITIVE.
 LINE IMAGE: 99, 831, 892, 841, 833

 ***ERROR: ELEMENT 100 INSTANCE PART-1-1 NODE NUMBERS MUST BE POSITIVE.
 LINE IMAGE: 100, 826, 867, 828, 827

 ***ERROR: ELEMENT 101 INSTANCE PART-1-1 NODE NUMBERS MUST BE POSITIVE.
 LINE IMAGE: 101, 826, 877, 297, 889

 ***ERROR: ELEMENT 102 INSTANCE PART-1-1 NODE NUMBERS MUST BE POSITIVE.
 LINE IMAGE: 102, 826, 867, 895, 828

 ***ERROR: ELEMENT 103 INSTANCE PART-1-1 NODE NUMBERS MUST BE POSITIVE.
 LINE IMAGE: 103, 829, 889, 826, 867

 ***ERROR: ELEMENT 104 INSTANCE PART-1-1 NODE NUMBERS MUST BE POSITIVE.
 LINE IMAGE: 104, 826, 889, 296, 895

 ***ERROR: ELEMENT 105 INSTANCE PART-1-1 NODE NUMBERS MUST BE POSITIVE.
 LINE IMAGE: 105, 896, 882, 245, 827

 ***ERROR: ELEMENT 106 INSTANCE PART-1-1 NODE NUMBERS MUST BE POSITIVE.
 LINE IMAGE: 106, 896, 867, 827, 828

 ***ERROR: ELEMENT 107 INSTANCE PART-1-1 NODE NUMBERS MUST BE POSITIVE.
 LINE IMAGE: 107, 896, 827, 877, 882

 ***ERROR: ELEMENT 108 INSTANCE PART-1-1 NODE NUMBERS MUST BE POSITIVE.
 LINE IMAGE: 108, 859, 852, 266, 265

 ***ERROR: ELEMENT 109 INSTANCE PART-1-1 NODE NUMBERS MUST BE POSITIVE.
 LINE IMAGE: 109, 859, 838, 869, 840

 ***ERROR: ELEMENT 110 INSTANCE PART-1-1 NODE NUMBERS MUST BE POSITIVE.
 LINE IMAGE: 110, 835, 859, 897, 839

 ***ERROR: ELEMENT 111 INSTANCE PART-1-1 NODE NUMBERS MUST BE POSITIVE.
 LINE IMAGE: 111, 859, 266, 897, 270

 ***ERROR: ELEMENT 112 INSTANCE PART-1-1 NODE NUMBERS MUST BE POSITIVE.
 LINE IMAGE: 112, 859, 838, 840, 839

 ***ERROR: ELEMENT 113 INSTANCE PART-1-1 NODE NUMBERS MUST BE POSITIVE.
 LINE IMAGE: 113, 856, 859, 839, 838

 ***ERROR: ELEMENT 114 INSTANCE PART-1-1 NODE NUMBERS MUST BE POSITIVE.
 LINE IMAGE: 114, 830, 832, 835, 846

 ***ERROR: ELEMENT 115 INSTANCE PART-1-1 NODE NUMBERS MUST BE POSITIVE.
 LINE IMAGE: 115, 828, 827, 28, 292

 ***ERROR: ELEMENT 116 INSTANCE PART-1-1 NODE NUMBERS MUST BE POSITIVE.
 LINE IMAGE: 116, 830, 832, 846, 833

 ***ERROR: ELEMENT 117 INSTANCE PART-1-1 NODE NUMBERS MUST BE POSITIVE.
 LINE IMAGE: 117, 820, 825, 857, 824

 ***ERROR: ELEMENT 118 INSTANCE PART-1-1 NODE NUMBERS MUST BE POSITIVE.
 LINE IMAGE: 118, 891, 898, 310, 311

 ***ERROR: ELEMENT 119 INSTANCE PART-1-1 NODE NUMBERS MUST BE POSITIVE.
 LINE IMAGE: 119, 820, 833, 829, 822

 ***ERROR: ELEMENT 120 INSTANCE PART-1-1 NODE NUMBERS MUST BE POSITIVE.
 LINE IMAGE: 120, 834, 832, 838, 872

 ***ERROR: ELEMENT 121 INSTANCE PART-1-1 NODE NUMBERS MUST BE POSITIVE.
 LINE IMAGE: 121, 834, 839, 837, 844

 ***ERROR: ELEMENT 122 INSTANCE PART-1-1 NODE NUMBERS MUST BE POSITIVE.
 LINE IMAGE: 122, 848, 847, 835, 851

 ***ERROR: ELEMENT 123 INSTANCE PART-1-1 NODE NUMBERS MUST BE POSITIVE.
 LINE IMAGE: 123, 847, 882, 250, 249

 ***ERROR: ELEMENT 124 INSTANCE PART-1-1 NODE NUMBERS MUST BE POSITIVE.
 LINE IMAGE: 124, 847, 881, 250, 882

 ***ERROR: ELEMENT 125 INSTANCE PART-1-1 NODE NUMBERS MUST BE POSITIVE.
 LINE IMAGE: 125, 835, 846, 886, 881

 ***ERROR: ELEMENT 126 INSTANCE PART-1-1 NODE NUMBERS MUST BE POSITIVE.
 LINE IMAGE: 126, 847, 850, 249, 253

 ***ERROR: ELEMENT 127 INSTANCE PART-1-1 NODE NUMBERS MUST BE POSITIVE.
 LINE IMAGE: 127, 258, 848, 852, 851

 ***ERROR: ELEMENT 128 INSTANCE PART-1-1 NODE NUMBERS MUST BE POSITIVE.
 LINE IMAGE: 128, 870, 333, 334, 338

 ***ERROR: ELEMENT 129 INSTANCE PART-1-1 NODE NUMBERS MUST BE POSITIVE.
 LINE IMAGE: 129, 258, 254, 848, 851

 ***ERROR: ELEMENT 130 INSTANCE PART-1-1 NODE NUMBERS MUST BE POSITIVE.
 LINE IMAGE: 130, 848, 835, 856, 852

 ***ERROR: ELEMENT 131 INSTANCE PART-1-1 NODE NUMBERS MUST BE POSITIVE.
 LINE IMAGE: 131, 842, 893, 330, 326

 ***ERROR: ELEMENT 132 INSTANCE PART-1-1 NODE NUMBERS MUST BE POSITIVE.
 LINE IMAGE: 132, 848, 847, 253, 850

 ***ERROR: ELEMENT 133 INSTANCE PART-1-1 NODE NUMBERS MUST BE POSITIVE.
 LINE IMAGE: 133, 823, 288, 899, 284

 ***ERROR: ELEMENT 134 INSTANCE PART-1-1 NODE NUMBERS MUST BE POSITIVE.
 LINE IMAGE: 134, 829, 826, 877, 896

 ***ERROR: ELEMENT 135 INSTANCE PART-1-1 NODE NUMBERS MUST BE POSITIVE.
 LINE IMAGE: 135, 836, 843, 317, 841

 ***ERROR: ELEMENT 136 INSTANCE PART-1-1 NODE NUMBERS MUST BE POSITIVE.
 LINE IMAGE: 136, 834, 845, 872, 840

 ***ERROR: ELEMENT 137 INSTANCE PART-1-1 NODE NUMBERS MUST BE POSITIVE.
 LINE IMAGE: 137, 883, 833, 832, 841

 ***ERROR: ELEMENT 138 INSTANCE PART-1-1 NODE NUMBERS MUST BE POSITIVE.
 LINE IMAGE: 138, 316, 894, 900, 890

 ***ERROR: ELEMENT 139 INSTANCE PART-1-1 NODE NUMBERS MUST BE POSITIVE.
 LINE IMAGE: 139, 841, 892, 890, 883

 ***ERROR: ELEMENT 140 INSTANCE PART-1-1 NODE NUMBERS MUST BE POSITIVE.
 LINE IMAGE: 140, 853, 879, 261, 265

 ***ERROR: ELEMENT 141 INSTANCE PART-1-1 NODE NUMBERS MUST BE POSITIVE.
 LINE IMAGE: 141, 894, 893, 843, 901

 ***ERROR: ELEMENT 142 INSTANCE PART-1-1 NODE NUMBERS MUST BE POSITIVE.
 LINE IMAGE: 142, 894, 892, 900, 890

 ***ERROR: ELEMENT 143 INSTANCE PART-1-1 NODE NUMBERS MUST BE POSITIVE.
 LINE IMAGE: 143, 894, 892, 902, 900

 ***ERROR: ELEMENT 144 INSTANCE PART-1-1 NODE NUMBERS MUST BE POSITIVE.
 LINE IMAGE: 144, 894, 892, 903, 902

 ***ERROR: ELEMENT 145 INSTANCE PART-1-1 NODE NUMBERS MUST BE POSITIVE.
 LINE IMAGE: 145, 867, 822, 889, 904

 ***ERROR: ELEMENT 146 INSTANCE PART-1-1 NODE NUMBERS MUST BE POSITIVE.
 LINE IMAGE: 146, 894, 866, 893, 903

 ***ERROR: ELEMENT 147 INSTANCE PART-1-1 NODE NUMBERS MUST BE POSITIVE.
 LINE IMAGE: 147, 869, 269, 840, 273

 ***ERROR: ELEMENT 148 INSTANCE PART-1-1 NODE NUMBERS MUST BE POSITIVE.
 LINE IMAGE: 148, 265, 879, 261, 260

 ***ERROR: ELEMENT 149 INSTANCE PART-1-1 NODE NUMBERS MUST BE POSITIVE.
 LINE IMAGE: 149, 869, 868, 905, 906

 ***ERROR: ELEMENT 150 INSTANCE PART-1-1 NODE NUMBERS MUST BE POSITIVE.
 LINE IMAGE: 150, 869, 858, 269, 268

 ***ERROR: ELEMENT 151 INSTANCE PART-1-1 NODE NUMBERS MUST BE POSITIVE.
 LINE IMAGE: 151, 869, 268, 907, 858

 ***ERROR: ELEMENT 152 INSTANCE PART-1-1 NODE NUMBERS MUST BE POSITIVE.
 LINE IMAGE: 152, 903, 892, 894, 866

 ***ERROR: ELEMENT 153 INSTANCE PART-1-1 NODE NUMBERS MUST BE POSITIVE.
 LINE IMAGE: 153, 885, 883, 892, 833

 ***ERROR: ELEMENT 154 INSTANCE PART-1-1 NODE NUMBERS MUST BE POSITIVE.
 LINE IMAGE: 154, 833, 892, 841, 883

 ***ERROR: ELEMENT 155 INSTANCE PART-1-1 NODE NUMBERS MUST BE POSITIVE.
 LINE IMAGE: 155, 841, 843, 317, 894

 ***ERROR: ELEMENT 156 INSTANCE PART-1-1 NODE NUMBERS MUST BE POSITIVE.
 LINE IMAGE: 156, 848, 854, 849, 862

 ***ERROR: ELEMENT 157 INSTANCE PART-1-1 NODE NUMBERS MUST BE POSITIVE.
 LINE IMAGE: 157, 856, 859, 853, 852

 ***ERROR: ELEMENT 158 INSTANCE PART-1-1 NODE NUMBERS MUST BE POSITIVE.
 LINE IMAGE: 158, 835, 846, 883, 886

 ***ERROR: ELEMENT 159 INSTANCE PART-1-1 NODE NUMBERS MUST BE POSITIVE.
 LINE IMAGE: 159, 885, 877, 846, 833

 ***ERROR: ELEMENT 160 INSTANCE PART-1-1 NODE NUMBERS MUST BE POSITIVE.
 LINE IMAGE: 160, 835, 891, 897, 851

 ***ERROR: ELEMENT 161 INSTANCE PART-1-1 NODE NUMBERS MUST BE POSITIVE.
 LINE IMAGE: 161, 882, 850, 847, 846

 ***ERROR: ELEMENT 162 INSTANCE PART-1-1 NODE NUMBERS MUST BE POSITIVE.
 LINE IMAGE: 162, 882, 881, 250, 888

 ***ERROR: ELEMENT 163 INSTANCE PART-1-1 NODE NUMBERS MUST BE POSITIVE.
 LINE IMAGE: 163, 885, 886, 846, 888

 ***ERROR: ELEMENT 164 INSTANCE PART-1-1 NODE NUMBERS MUST BE POSITIVE.
 LINE IMAGE: 164, 835, 837, 839, 897

 ***ERROR: ELEMENT 165 INSTANCE PART-1-1 NODE NUMBERS MUST BE POSITIVE.
 LINE IMAGE: 165, 866, 892, 894, 841

 ***ERROR: ELEMENT 166 INSTANCE PART-1-1 NODE NUMBERS MUST BE POSITIVE.
 LINE IMAGE: 166, 841, 842, 866, 872

 ***ERROR: ELEMENT 167 INSTANCE PART-1-1 NODE NUMBERS MUST BE POSITIVE.
 LINE IMAGE: 167, 834, 844, 836, 843

 ***ERROR: ELEMENT 168 INSTANCE PART-1-1 NODE NUMBERS MUST BE POSITIVE.
 LINE IMAGE: 168, 834, 883, 841, 836

 ***ERROR: ELEMENT 169 INSTANCE PART-1-1 NODE NUMBERS MUST BE POSITIVE.
 LINE IMAGE: 169, 856, 835, 839, 859

 ***ERROR: ELEMENT 170 INSTANCE PART-1-1 NODE NUMBERS MUST BE POSITIVE.
 LINE IMAGE: 170, 834, 835, 837, 839

 ***ERROR: ELEMENT 171 INSTANCE PART-1-1 NODE NUMBERS MUST BE POSITIVE.
 LINE IMAGE: 171, 836, 890, 313, 886

 ***ERROR: ELEMENT 172 INSTANCE PART-1-1 NODE NUMBERS MUST BE POSITIVE.
 LINE IMAGE: 172, 841, 843, 893, 842

 ***ERROR: ELEMENT 173 INSTANCE PART-1-1 NODE NUMBERS MUST BE POSITIVE.
 LINE IMAGE: 173, 835, 836, 837, 314

 ***ERROR: ELEMENT 174 INSTANCE PART-1-1 NODE NUMBERS MUST BE POSITIVE.
 LINE IMAGE: 174, 829, 862, 896, 850

 ***ERROR: ELEMENT 175 INSTANCE PART-1-1 NODE NUMBERS MUST BE POSITIVE.
 LINE IMAGE: 175, 830, 877, 846, 850

 ***ERROR: ELEMENT 176 INSTANCE PART-1-1 NODE NUMBERS MUST BE POSITIVE.
 LINE IMAGE: 176, 832, 846, 833, 883

 ***ERROR: ELEMENT 177 INSTANCE PART-1-1 NODE NUMBERS MUST BE POSITIVE.
 LINE IMAGE: 177, 820, 831, 875, 870

 ***ERROR: ELEMENT 178 INSTANCE PART-1-1 NODE NUMBERS MUST BE POSITIVE.
 LINE IMAGE: 178, 833, 822, 821, 889

 ***ERROR: ELEMENT 179 INSTANCE PART-1-1 NODE NUMBERS MUST BE POSITIVE.
 LINE IMAGE: 179, 831, 892, 864, 866

 ***ERROR: ELEMENT 180 INSTANCE PART-1-1 NODE NUMBERS MUST BE POSITIVE.
 LINE IMAGE: 180, 892, 307, 902, 303

 ***ERROR: ELEMENT 181 INSTANCE PART-1-1 NODE NUMBERS MUST BE POSITIVE.
 LINE IMAGE: 181, 831, 833, 821, 864

 ***ERROR: ELEMENT 182 INSTANCE PART-1-1 NODE NUMBERS MUST BE POSITIVE.
 LINE IMAGE: 182, 833, 889, 821, 864

 ***ERROR: ELEMENT 183 INSTANCE PART-1-1 NODE NUMBERS MUST BE POSITIVE.
 LINE IMAGE: 183, 879, 256, 860, 854

 ***ERROR: ELEMENT 184 INSTANCE PART-1-1 NODE NUMBERS MUST BE POSITIVE.
 LINE IMAGE: 184, 821, 822, 823, 899

 ***ERROR: ELEMENT 185 INSTANCE PART-1-1 NODE NUMBERS MUST BE POSITIVE.
 LINE IMAGE: 185, 820, 824, 823, 822

 ***ERROR: ELEMENT 186 INSTANCE PART-1-1 NODE NUMBERS MUST BE POSITIVE.
 LINE IMAGE: 186, 885, 882, 884, 888

 ***ERROR: ELEMENT 187 INSTANCE PART-1-1 NODE NUMBERS MUST BE POSITIVE.
 LINE IMAGE: 187, 846, 877, 882, 850

 ***ERROR: ELEMENT 188 INSTANCE PART-1-1 NODE NUMBERS MUST BE POSITIVE.
 LINE IMAGE: 188, 857, 838, 832, 870

 ***ERROR: ELEMENT 189 INSTANCE PART-1-1 NODE NUMBERS MUST BE POSITIVE.
 LINE IMAGE: 189, 896, 882, 877, 850

 ***ERROR: ELEMENT 190 INSTANCE PART-1-1 NODE NUMBERS MUST BE POSITIVE.
 LINE IMAGE: 190, 896, 248, 862, 908

 ***ERROR: ELEMENT 191 INSTANCE PART-1-1 NODE NUMBERS MUST BE POSITIVE.
 LINE IMAGE: 191, 833, 864, 301, 889

 ***ERROR: ELEMENT 192 INSTANCE PART-1-1 NODE NUMBERS MUST BE POSITIVE.
 LINE IMAGE: 192, 877, 882, 827, 884

 ***ERROR: ELEMENT 193 INSTANCE PART-1-1 NODE NUMBERS MUST BE POSITIVE.
 LINE IMAGE: 193, 826, 296, 889, 297

 ***ERROR: ELEMENT 194 INSTANCE PART-1-1 NODE NUMBERS MUST BE POSITIVE.
 LINE IMAGE: 194, 826, 827, 896, 867

 ***ERROR: ELEMENT 195 INSTANCE PART-1-1 NODE NUMBERS MUST BE POSITIVE.
 LINE IMAGE: 195, 249, 850, 847, 882

 ***ERROR: ELEMENT 196 INSTANCE PART-1-1 NODE NUMBERS MUST BE POSITIVE.
 LINE IMAGE: 196, 888, 885, 294, 884

 ***ERROR: ELEMENT 197 INSTANCE PART-1-1 NODE NUMBERS MUST BE POSITIVE.
 LINE IMAGE: 197, 896, 850, 862, 249

 ***ERROR: ELEMENT 198 INSTANCE PART-1-1 NODE NUMBERS MUST BE POSITIVE.
 LINE IMAGE: 198, 896, 867, 828, 908

 ***ERROR: ELEMENT 199 INSTANCE PART-1-1 NODE NUMBERS MUST BE POSITIVE.
 LINE IMAGE: 199, 854, 257, 855, 879

 ***ERROR: ELEMENT 200 INSTANCE PART-1-1 NODE NUMBERS MUST BE POSITIVE.
 LINE IMAGE: 200, 829, 896, 877, 850

 ***ERROR: ELEMENT 201 INSTANCE PART-1-1 NODE NUMBERS MUST BE POSITIVE.
 LINE IMAGE: 201, 900, 887, 65, 312

 ***ERROR: ELEMENT 202 INSTANCE PART-1-1 NODE NUMBERS MUST BE POSITIVE.
 LINE IMAGE: 202, 877, 294, 884, 293

 ***ERROR: ELEMENT 203 INSTANCE PART-1-1 NODE NUMBERS MUST BE POSITIVE.
 LINE IMAGE: 203, 829, 826, 896, 867

 ***ERROR: ELEMENT 204 INSTANCE PART-1-1 NODE NUMBERS MUST BE POSITIVE.
 LINE IMAGE: 204, 829, 867, 896, 862

 ***ERROR: ELEMENT 205 INSTANCE PART-1-1 NODE NUMBERS MUST BE POSITIVE.
 LINE IMAGE: 205, 825, 857, 824, 286

 ***ERROR: ELEMENT 206 INSTANCE PART-1-1 NODE NUMBERS MUST BE POSITIVE.
 LINE IMAGE: 206, 874, 875, 873, 339

 ***ERROR: ELEMENT 207 INSTANCE PART-1-1 NODE NUMBERS MUST BE POSITIVE.
 LINE IMAGE: 207, 845, 840, 909, 910

 ***ERROR: ELEMENT 208 INSTANCE PART-1-1 NODE NUMBERS MUST BE POSITIVE.
 LINE IMAGE: 208, 911, 72, 912, 324

 ***ERROR: ELEMENT 209 INSTANCE PART-1-1 NODE NUMBERS MUST BE POSITIVE.
 LINE IMAGE: 209, 912, 73, 913, 325

 ***ERROR: ELEMENT 210 INSTANCE PART-1-1 NODE NUMBERS MUST BE POSITIVE.
 LINE IMAGE: 210, 845, 324, 912, 325

 ***ERROR: ELEMENT 211 INSTANCE PART-1-1 NODE NUMBERS MUST BE POSITIVE.
 LINE IMAGE: 211, 849, 862, 854, 860

 ***ERROR: ELEMENT 212 INSTANCE PART-1-1 NODE NUMBERS MUST BE POSITIVE.
 LINE IMAGE: 212, 861, 908, 914, 277

 ***ERROR: ELEMENT 213 INSTANCE PART-1-1 NODE NUMBERS MUST BE POSITIVE.
 LINE IMAGE: 213, 861, 908, 867, 862

 ***ERROR: ELEMENT 214 INSTANCE PART-1-1 NODE NUMBERS MUST BE POSITIVE.
 LINE IMAGE: 214, 854, 257, 252, 253

 ***ERROR: ELEMENT 215 INSTANCE PART-1-1 NODE NUMBERS MUST BE POSITIVE.
 LINE IMAGE: 215, 848, 862, 253, 854

 ***ERROR: ELEMENT 216 INSTANCE PART-1-1 NODE NUMBERS MUST BE POSITIVE.
 LINE IMAGE: 216, 850, 862, 249, 253

 ***ERROR: ELEMENT 217 INSTANCE PART-1-1 NODE NUMBERS MUST BE POSITIVE.
 LINE IMAGE: 217, 874, 823, 821, 875

 ***ERROR: ELEMENT 218 INSTANCE PART-1-1 NODE NUMBERS MUST BE POSITIVE.
 LINE IMAGE: 218, 875, 873, 335, 866

 ***ERROR: ELEMENT 219 INSTANCE PART-1-1 NODE NUMBERS MUST BE POSITIVE.
 LINE IMAGE: 219, 821, 304, 878, 873

 ***ERROR: ELEMENT 220 INSTANCE PART-1-1 NODE NUMBERS MUST BE POSITIVE.
 LINE IMAGE: 220, 875, 873, 339, 335

 ***ERROR: ELEMENT 221 INSTANCE PART-1-1 NODE NUMBERS MUST BE POSITIVE.
 LINE IMAGE: 221, 841, 894, 890, 892

 ***ERROR: ELEMENT 222 INSTANCE PART-1-1 NODE NUMBERS MUST BE POSITIVE.
 LINE IMAGE: 222, 885, 892, 890, 900

 ***ERROR: ELEMENT 223 INSTANCE PART-1-1 NODE NUMBERS MUST BE POSITIVE.
 LINE IMAGE: 223, 845, 840, 910, 872

 ***ERROR: ELEMENT 224 INSTANCE PART-1-1 NODE NUMBERS MUST BE POSITIVE.
 LINE IMAGE: 224, 831, 872, 334, 870

 ***ERROR: ELEMENT 225 INSTANCE PART-1-1 NODE NUMBERS MUST BE POSITIVE.
 LINE IMAGE: 225, 874, 58, 59, 288

 ***ERROR: ELEMENT 226 INSTANCE PART-1-1 NODE NUMBERS MUST BE POSITIVE.
 LINE IMAGE: 226, 826, 292, 828, 895

 ***ERROR: ELEMENT 227 INSTANCE PART-1-1 NODE NUMBERS MUST BE POSITIVE.
 LINE IMAGE: 227, 841, 894, 893, 843

 ***ERROR: ELEMENT 228 INSTANCE PART-1-1 NODE NUMBERS MUST BE POSITIVE.
 LINE IMAGE: 228, 831, 832, 841, 872

 ***ERROR: ELEMENT 229 INSTANCE PART-1-1 NODE NUMBERS MUST BE POSITIVE.
 LINE IMAGE: 229, 834, 845, 839, 844

 ***ERROR: ELEMENT 230 INSTANCE PART-1-1 NODE NUMBERS MUST BE POSITIVE.
 LINE IMAGE: 230, 841, 866, 842, 893

 ***ERROR: ELEMENT 231 INSTANCE PART-1-1 NODE NUMBERS MUST BE POSITIVE.
 LINE IMAGE: 231, 869, 905, 868, 907

 ***ERROR: ELEMENT 232 INSTANCE PART-1-1 NODE NUMBERS MUST BE POSITIVE.
 LINE IMAGE: 232, 869, 907, 272, 905

 ***ERROR: ELEMENT 233 INSTANCE PART-1-1 NODE NUMBERS MUST BE POSITIVE.
 LINE IMAGE: 233, 857, 871, 868, 870

 ***ERROR: ELEMENT 234 INSTANCE PART-1-1 NODE NUMBERS MUST BE POSITIVE.
 LINE IMAGE: 234, 906, 905, 51, 336

 ***ERROR: ELEMENT 235 INSTANCE PART-1-1 NODE NUMBERS MUST BE POSITIVE.
 LINE IMAGE: 235, 868, 336, 906, 332

 ***ERROR: ELEMENT 236 INSTANCE PART-1-1 NODE NUMBERS MUST BE POSITIVE.
 LINE IMAGE: 236, 851, 915, 255, 881

 ***ERROR: ELEMENT 237 INSTANCE PART-1-1 NODE NUMBERS MUST BE POSITIVE.
 LINE IMAGE: 237, 915, 881, 251, 255

 ***ERROR: ELEMENT 238 INSTANCE PART-1-1 NODE NUMBERS MUST BE POSITIVE.
 LINE IMAGE: 238, 915, 898, 34, 310

 ***ERROR: ELEMENT 239 INSTANCE PART-1-1 NODE NUMBERS MUST BE POSITIVE.
 LINE IMAGE: 239, 891, 263, 916, 917

 ***ERROR: ELEMENT 240 INSTANCE PART-1-1 NODE NUMBERS MUST BE POSITIVE.
 LINE IMAGE: 240, 891, 851, 259, 916

 ***ERROR: ELEMENT 241 INSTANCE PART-1-1 NODE NUMBERS MUST BE POSITIVE.
 LINE IMAGE: 241, 891, 917, 259, 898

 ***ERROR: ELEMENT 242 INSTANCE PART-1-1 NODE NUMBERS MUST BE POSITIVE.
 LINE IMAGE: 242, 916, 917, 36, 259

 ***ERROR: ELEMENT 243 INSTANCE PART-1-1 NODE NUMBERS MUST BE POSITIVE.
 LINE IMAGE: 243, 916, 263, 37, 36

 ***ERROR: ELEMENT 244 INSTANCE PART-1-1 NODE NUMBERS MUST BE POSITIVE.
 LINE IMAGE: 244, 906, 50, 336, 51

 ***ERROR: ELEMENT 245 INSTANCE PART-1-1 NODE NUMBERS MUST BE POSITIVE.
 LINE IMAGE: 245, 868, 871, 918, 870

 ***ERROR: ELEMENT 246 INSTANCE PART-1-1 NODE NUMBERS MUST BE POSITIVE.
 LINE IMAGE: 246, 871, 919, 290, 291

 ***ERROR: ELEMENT 247 INSTANCE PART-1-1 NODE NUMBERS MUST BE POSITIVE.
 LINE IMAGE: 247, 919, 905, 336, 56

 ***ERROR: ELEMENT 248 INSTANCE PART-1-1 NODE NUMBERS MUST BE POSITIVE.
 LINE IMAGE: 248, 843, 842, 844, 913

 ***ERROR: ELEMENT 249 INSTANCE PART-1-1 NODE NUMBERS MUST BE POSITIVE.
 LINE IMAGE: 249, 913, 74, 901, 326

 ***ERROR: ELEMENT 250 INSTANCE PART-1-1 NODE NUMBERS MUST BE POSITIVE.
 LINE IMAGE: 250, 842, 325, 913, 326

 ***ERROR: ELEMENT 251 INSTANCE PART-1-1 NODE NUMBERS MUST BE POSITIVE.
 LINE IMAGE: 251, 878, 7, 339, 71

 ***ERROR: ELEMENT 252 INSTANCE PART-1-1 NODE NUMBERS MUST BE POSITIVE.
 LINE IMAGE: 252, 878, 339, 7, 59

 ***ERROR: ELEMENT 253 INSTANCE PART-1-1 NODE NUMBERS MUST BE POSITIVE.
 LINE IMAGE: 253, 920, 901, 75, 327

 ***ERROR: ELEMENT 254 INSTANCE PART-1-1 NODE NUMBERS MUST BE POSITIVE.
 LINE IMAGE: 254, 920, 903, 327, 68

 ***ERROR: ELEMENT 255 INSTANCE PART-1-1 NODE NUMBERS MUST BE POSITIVE.
 LINE IMAGE: 255, 920, 902, 307, 67

 ***ERROR: ELEMENT 256 INSTANCE PART-1-1 NODE NUMBERS MUST BE POSITIVE.
 LINE IMAGE: 256, 920, 902, 67, 320

 ***ERROR: ELEMENT 257 INSTANCE PART-1-1 NODE NUMBERS MUST BE POSITIVE.
 LINE IMAGE: 257, 885, 890, 886, 312

 ***ERROR: ELEMENT 258 INSTANCE PART-1-1 NODE NUMBERS MUST BE POSITIVE.
 LINE IMAGE: 258, 892, 902, 900, 303

 ***ERROR: ELEMENT 259 INSTANCE PART-1-1 NODE NUMBERS MUST BE POSITIVE.
 LINE IMAGE: 259, 302, 885, 298, 900

 ***ERROR: ELEMENT 260 INSTANCE PART-1-1 NODE NUMBERS MUST BE POSITIVE.
 LINE IMAGE: 260, 885, 846, 877, 882

 ***ERROR: ELEMENT 261 INSTANCE PART-1-1 NODE NUMBERS MUST BE POSITIVE.
 LINE IMAGE: 261, 900, 66, 902, 316

 ***ERROR: ELEMENT 262 INSTANCE PART-1-1 NODE NUMBERS MUST BE POSITIVE.
 LINE IMAGE: 262, 900, 316, 65, 66

 ***ERROR: ELEMENT 263 INSTANCE PART-1-1 NODE NUMBERS MUST BE POSITIVE.
 LINE IMAGE: 263, 896, 862, 248, 249

 ***ERROR: ELEMENT 264 INSTANCE PART-1-1 NODE NUMBERS MUST BE POSITIVE.
 LINE IMAGE: 264, 908, 43, 828, 244

 ***ERROR: ELEMENT 265 INSTANCE PART-1-1 NODE NUMBERS MUST BE POSITIVE.
 LINE IMAGE: 265, 908, 42, 914, 277

 ***ERROR: ELEMENT 266 INSTANCE PART-1-1 NODE NUMBERS MUST BE POSITIVE.
 LINE IMAGE: 266, 861, 862, 914, 908

 ***ERROR: ELEMENT 267 INSTANCE PART-1-1 NODE NUMBERS MUST BE POSITIVE.
 LINE IMAGE: 267, 867, 276, 908, 277

 ***ERROR: ELEMENT 268 INSTANCE PART-1-1 NODE NUMBERS MUST BE POSITIVE.
 LINE IMAGE: 268, 921, 887, 888, 308

 ***ERROR: ELEMENT 269 INSTANCE PART-1-1 NODE NUMBERS MUST BE POSITIVE.
 LINE IMAGE: 269, 921, 888, 922, 308

 ***ERROR: ELEMENT 270 INSTANCE PART-1-1 NODE NUMBERS MUST BE POSITIVE.
 LINE IMAGE: 270, 921, 887, 308, 64

 ***ERROR: ELEMENT 271 INSTANCE PART-1-1 NODE NUMBERS MUST BE POSITIVE.
 LINE IMAGE: 271, 921, 922, 247, 32

 ***ERROR: ELEMENT 272 INSTANCE PART-1-1 NODE NUMBERS MUST BE POSITIVE.
 LINE IMAGE: 272, 921, 308, 2, 64

 ***ERROR: ELEMENT 273 INSTANCE PART-1-1 NODE NUMBERS MUST BE POSITIVE.
 LINE IMAGE: 273, 921, 2, 308, 32

 ***ERROR: ELEMENT 274 INSTANCE PART-1-1 NODE NUMBERS MUST BE POSITIVE.
 LINE IMAGE: 274, 865, 70, 873, 335

 ***ERROR: ELEMENT 275 INSTANCE PART-1-1 NODE NUMBERS MUST BE POSITIVE.
 LINE IMAGE: 275, 865, 305, 873, 70

 ***ERROR: ELEMENT 276 INSTANCE PART-1-1 NODE NUMBERS MUST BE POSITIVE.
 LINE IMAGE: 276, 865, 903, 866, 306

 ***ERROR: ELEMENT 277 INSTANCE PART-1-1 NODE NUMBERS MUST BE POSITIVE.
 LINE IMAGE: 277, 860, 278, 914, 41

 ***ERROR: ELEMENT 278 INSTANCE PART-1-1 NODE NUMBERS MUST BE POSITIVE.
 LINE IMAGE: 278, 865, 903, 306, 69

 ***ERROR: ELEMENT 279 INSTANCE PART-1-1 NODE NUMBERS MUST BE POSITIVE.
 LINE IMAGE: 279, 917, 44, 3, 35

 ***ERROR: ELEMENT 280 INSTANCE PART-1-1 NODE NUMBERS MUST BE POSITIVE.
 LINE IMAGE: 280, 916, 852, 258, 855

 ***ERROR: ELEMENT 281 INSTANCE PART-1-1 NODE NUMBERS MUST BE POSITIVE.
 LINE IMAGE: 281, 891, 923, 917, 311

 ***ERROR: ELEMENT 282 INSTANCE PART-1-1 NODE NUMBERS MUST BE POSITIVE.
 LINE IMAGE: 282, 917, 3, 44, 36

 ***ERROR: ELEMENT 283 INSTANCE PART-1-1 NODE NUMBERS MUST BE POSITIVE.
 LINE IMAGE: 283, 917, 44, 923, 263

 ***ERROR: ELEMENT 284 INSTANCE PART-1-1 NODE NUMBERS MUST BE POSITIVE.
 LINE IMAGE: 284, 916, 36, 917, 263

 ***ERROR: ELEMENT 285 INSTANCE PART-1-1 NODE NUMBERS MUST BE POSITIVE.
 LINE IMAGE: 285, 920, 327, 903, 893

 ***ERROR: ELEMENT 286 INSTANCE PART-1-1 NODE NUMBERS MUST BE POSITIVE.
 LINE IMAGE: 286, 903, 920, 893, 894

 ***ERROR: ELEMENT 287 INSTANCE PART-1-1 NODE NUMBERS MUST BE POSITIVE.
 LINE IMAGE: 287, 903, 893, 327, 331

 ***ERROR: ELEMENT 288 INSTANCE PART-1-1 NODE NUMBERS MUST BE POSITIVE.
 LINE IMAGE: 288, 903, 866, 893, 331

 ***ERROR: ELEMENT 289 INSTANCE PART-1-1 NODE NUMBERS MUST BE POSITIVE.
 LINE IMAGE: 289, 865, 866, 903, 331

 ***ERROR: ELEMENT 290 INSTANCE PART-1-1 NODE NUMBERS MUST BE POSITIVE.
 LINE IMAGE: 290, 845, 910, 909, 328

 ***ERROR: ELEMENT 291 INSTANCE PART-1-1 NODE NUMBERS MUST BE POSITIVE.
 LINE IMAGE: 291, 869, 871, 907, 868

 ***ERROR: ELEMENT 292 INSTANCE PART-1-1 NODE NUMBERS MUST BE POSITIVE.
 LINE IMAGE: 292, 869, 273, 840, 909

 ***ERROR: ELEMENT 293 INSTANCE PART-1-1 NODE NUMBERS MUST BE POSITIVE.
 LINE IMAGE: 293, 853, 265, 859, 858

 ***ERROR: ELEMENT 294 INSTANCE PART-1-1 NODE NUMBERS MUST BE POSITIVE.
 LINE IMAGE: 294, 869, 910, 906, 909

 ***ERROR: ELEMENT 295 INSTANCE PART-1-1 NODE NUMBERS MUST BE POSITIVE.
 LINE IMAGE: 295, 910, 872, 870, 333

 ***ERROR: ELEMENT 296 INSTANCE PART-1-1 NODE NUMBERS MUST BE POSITIVE.
 LINE IMAGE: 296, 868, 910, 870, 333

 ***ERROR: ELEMENT 297 INSTANCE PART-1-1 NODE NUMBERS MUST BE POSITIVE.
 LINE IMAGE: 297, 907, 876, 53, 287

 ***ERROR: ELEMENT 298 INSTANCE PART-1-1 NODE NUMBERS MUST BE POSITIVE.
 LINE IMAGE: 298, 871, 907, 905, 291

 ***ERROR: ELEMENT 299 INSTANCE PART-1-1 NODE NUMBERS MUST BE POSITIVE.
 LINE IMAGE: 299, 907, 52, 905, 291

 ***ERROR: ELEMENT 300 INSTANCE PART-1-1 NODE NUMBERS MUST BE POSITIVE.
 LINE IMAGE: 300, 845, 842, 872, 329

 ***ERROR: ELEMENT 301 INSTANCE PART-1-1 NODE NUMBERS MUST BE POSITIVE.
 LINE IMAGE: 301, 907, 52, 53, 272

 ***ERROR: ELEMENT 302 INSTANCE PART-1-1 NODE NUMBERS MUST BE POSITIVE.
 LINE IMAGE: 302, 874, 823, 824, 289

 ***ERROR: ELEMENT 303 INSTANCE PART-1-1 NODE NUMBERS MUST BE POSITIVE.
 LINE IMAGE: 303, 874, 823, 875, 824

 ***ERROR: ELEMENT 304 INSTANCE PART-1-1 NODE NUMBERS MUST BE POSITIVE.
 LINE IMAGE: 304, 878, 71, 873, 304

 ***ERROR: ELEMENT 305 INSTANCE PART-1-1 NODE NUMBERS MUST BE POSITIVE.
 LINE IMAGE: 305, 874, 878, 339, 873

 ***ERROR: ELEMENT 306 INSTANCE PART-1-1 NODE NUMBERS MUST BE POSITIVE.
 LINE IMAGE: 306, 337, 338, 870, 918

 ***ERROR: ELEMENT 307 INSTANCE PART-1-1 NODE NUMBERS MUST BE POSITIVE.
 LINE IMAGE: 307, 874, 918, 338, 58

 ***ERROR: ELEMENT 308 INSTANCE PART-1-1 NODE NUMBERS MUST BE POSITIVE.
 LINE IMAGE: 308, 874, 288, 823, 289

 ***ERROR: ELEMENT 309 INSTANCE PART-1-1 NODE NUMBERS MUST BE POSITIVE.
 LINE IMAGE: 309, 828, 895, 292, 63

 ***ERROR: ELEMENT 310 INSTANCE PART-1-1 NODE NUMBERS MUST BE POSITIVE.
 LINE IMAGE: 310, 828, 63, 292, 1

 ***ERROR: ELEMENT 311 INSTANCE PART-1-1 NODE NUMBERS MUST BE POSITIVE.
 LINE IMAGE: 311, 867, 828, 276, 895

 ***ERROR: ELEMENT 312 INSTANCE PART-1-1 NODE NUMBERS MUST BE POSITIVE.
 LINE IMAGE: 312, 828, 276, 1, 43

 ***ERROR: ELEMENT 313 INSTANCE PART-1-1 NODE NUMBERS MUST BE POSITIVE.
 LINE IMAGE: 313, 908, 276, 828, 43

 ***ERROR: ELEMENT 314 INSTANCE PART-1-1 NODE NUMBERS MUST BE POSITIVE.
 LINE IMAGE: 314, 867, 828, 908, 276

 ***ERROR: ELEMENT 315 INSTANCE PART-1-1 NODE NUMBERS MUST BE POSITIVE.
 LINE IMAGE: 315, 876, 287, 863, 283

 ***ERROR: ELEMENT 316 INSTANCE PART-1-1 NODE NUMBERS MUST BE POSITIVE.
 LINE IMAGE: 316, 876, 264, 880, 858

 ***ERROR: ELEMENT 317 INSTANCE PART-1-1 NODE NUMBERS MUST BE POSITIVE.
 LINE IMAGE: 317, 854, 257, 256, 252

 ***ERROR: ELEMENT 318 INSTANCE PART-1-1 NODE NUMBERS MUST BE POSITIVE.
 LINE IMAGE: 318, 876, 880, 54, 283

 ***ERROR: ELEMENT 319 INSTANCE PART-1-1 NODE NUMBERS MUST BE POSITIVE.
 LINE IMAGE: 319, 876, 880, 264, 54

 ***ERROR: ELEMENT 320 INSTANCE PART-1-1 NODE NUMBERS MUST BE POSITIVE.
 LINE IMAGE: 320, 875, 334, 335, 339

 ***ERROR: ELEMENT 321 INSTANCE PART-1-1 NODE NUMBERS MUST BE POSITIVE.
 LINE IMAGE: 321, 867, 904, 280, 822

 ***ERROR: ELEMENT 322 INSTANCE PART-1-1 NODE NUMBERS MUST BE POSITIVE.
 LINE IMAGE: 322, 867, 280, 895, 276

 ***ERROR: ELEMENT 323 INSTANCE PART-1-1 NODE NUMBERS MUST BE POSITIVE.
 LINE IMAGE: 323, 895, 62, 904, 296

 ***ERROR: ELEMENT 324 INSTANCE PART-1-1 NODE NUMBERS MUST BE POSITIVE.
 LINE IMAGE: 324, 876, 858, 863, 287

 ***ERROR: ELEMENT 325 INSTANCE PART-1-1 NODE NUMBERS MUST BE POSITIVE.
 LINE IMAGE: 325, 879, 863, 880, 853

 ***ERROR: ELEMENT 326 INSTANCE PART-1-1 NODE NUMBERS MUST BE POSITIVE.
 LINE IMAGE: 326, 849, 863, 860, 854

 ***ERROR: ELEMENT 327 INSTANCE PART-1-1 NODE NUMBERS MUST BE POSITIVE.
 LINE IMAGE: 327, 892, 903, 307, 306

 ***ERROR: ELEMENT 328 INSTANCE PART-1-1 NODE NUMBERS MUST BE POSITIVE.
 LINE IMAGE: 328, 902, 66, 320, 316

 ***ERROR: ELEMENT 329 INSTANCE PART-1-1 NODE NUMBERS MUST BE POSITIVE.
 LINE IMAGE: 329, 902, 67, 320, 66

 ***ERROR: ELEMENT 330 INSTANCE PART-1-1 NODE NUMBERS MUST BE POSITIVE.
 LINE IMAGE: 330, 920, 327, 75, 68

 ***ERROR: ELEMENT 331 INSTANCE PART-1-1 NODE NUMBERS MUST BE POSITIVE.
 LINE IMAGE: 331, 844, 319, 837, 318

 ***ERROR: ELEMENT 332 INSTANCE PART-1-1 NODE NUMBERS MUST BE POSITIVE.
 LINE IMAGE: 332, 831, 866, 841, 892

 ***ERROR: ELEMENT 333 INSTANCE PART-1-1 NODE NUMBERS MUST BE POSITIVE.
 LINE IMAGE: 333, 894, 890, 316, 317

 ***ERROR: ELEMENT 334 INSTANCE PART-1-1 NODE NUMBERS MUST BE POSITIVE.
 LINE IMAGE: 334, 902, 316, 894, 900

 ***ERROR: ELEMENT 335 INSTANCE PART-1-1 NODE NUMBERS MUST BE POSITIVE.
 LINE IMAGE: 335, 920, 327, 893, 901

 ***ERROR: ELEMENT 336 INSTANCE PART-1-1 NODE NUMBERS MUST BE POSITIVE.
 LINE IMAGE: 336, 851, 915, 898, 255

 ***ERROR: ELEMENT 337 INSTANCE PART-1-1 NODE NUMBERS MUST BE POSITIVE.
 LINE IMAGE: 337, 891, 915, 881, 886

 ***ERROR: ELEMENT 338 INSTANCE PART-1-1 NODE NUMBERS MUST BE POSITIVE.
 LINE IMAGE: 338, 915, 34, 255, 251

 ***ERROR: ELEMENT 339 INSTANCE PART-1-1 NODE NUMBERS MUST BE POSITIVE.
 LINE IMAGE: 339, 915, 922, 886, 309

 ***ERROR: ELEMENT 340 INSTANCE PART-1-1 NODE NUMBERS MUST BE POSITIVE.
 LINE IMAGE: 340, 847, 851, 254, 881

 ***ERROR: ELEMENT 341 INSTANCE PART-1-1 NODE NUMBERS MUST BE POSITIVE.
 LINE IMAGE: 341, 851, 881, 255, 254

 ***ERROR: ELEMENT 342 INSTANCE PART-1-1 NODE NUMBERS MUST BE POSITIVE.
 LINE IMAGE: 342, 881, 888, 922, 251

 ***ERROR: ELEMENT 343 INSTANCE PART-1-1 NODE NUMBERS MUST BE POSITIVE.
 LINE IMAGE: 343, 846, 881, 888, 886

 ***ERROR: ELEMENT 344 INSTANCE PART-1-1 NODE NUMBERS MUST BE POSITIVE.
 LINE IMAGE: 344, 863, 854, 879, 860

 ***ERROR: ELEMENT 345 INSTANCE PART-1-1 NODE NUMBERS MUST BE POSITIVE.
 LINE IMAGE: 345, 828, 1, 276, 63

 ***ERROR: ELEMENT 346 INSTANCE PART-1-1 NODE NUMBERS MUST BE POSITIVE.
 LINE IMAGE: 346, 860, 863, 880, 879

 ***ERROR: ELEMENT 347 INSTANCE PART-1-1 NODE NUMBERS MUST BE POSITIVE.
 LINE IMAGE: 347, 924, 879, 256, 860

 ***ERROR: ELEMENT 348 INSTANCE PART-1-1 NODE NUMBERS MUST BE POSITIVE.
 LINE IMAGE: 348, 860, 41, 914, 252

 ***ERROR: ELEMENT 349 INSTANCE PART-1-1 NODE NUMBERS MUST BE POSITIVE.
 LINE IMAGE: 349, 860, 40, 924, 279

 ***ERROR: ELEMENT 350 INSTANCE PART-1-1 NODE NUMBERS MUST BE POSITIVE.
 LINE IMAGE: 350, 860, 256, 40, 41

 ***ERROR: ELEMENT 351 INSTANCE PART-1-1 NODE NUMBERS MUST BE POSITIVE.
 LINE IMAGE: 351, 849, 861, 860, 863

 ***ERROR: ELEMENT 352 INSTANCE PART-1-1 NODE NUMBERS MUST BE POSITIVE.
 LINE IMAGE: 352, 839, 925, 845, 275

 ***ERROR: ELEMENT 353 INSTANCE PART-1-1 NODE NUMBERS MUST BE POSITIVE.
 LINE IMAGE: 353, 838, 910, 872, 870

 ***ERROR: ELEMENT 354 INSTANCE PART-1-1 NODE NUMBERS MUST BE POSITIVE.
 LINE IMAGE: 354, 845, 329, 910, 328

 ***ERROR: ELEMENT 355 INSTANCE PART-1-1 NODE NUMBERS MUST BE POSITIVE.
 LINE IMAGE: 355, 853, 863, 880, 858

 ***ERROR: ELEMENT 356 INSTANCE PART-1-1 NODE NUMBERS MUST BE POSITIVE.
 LINE IMAGE: 356, 258, 253, 257, 855

 ***ERROR: ELEMENT 357 INSTANCE PART-1-1 NODE NUMBERS MUST BE POSITIVE.
 LINE IMAGE: 357, 875, 338, 334, 339

 ***ERROR: ELEMENT 358 INSTANCE PART-1-1 NODE NUMBERS MUST BE POSITIVE.
 LINE IMAGE: 358, 860, 854, 256, 252

 ***ERROR: ELEMENT 359 INSTANCE PART-1-1 NODE NUMBERS MUST BE POSITIVE.
 LINE IMAGE: 359, 849, 830, 850, 829

 ***ERROR: ELEMENT 360 INSTANCE PART-1-1 NODE NUMBERS MUST BE POSITIVE.
 LINE IMAGE: 360, 848, 849, 854, 853

 ***ERROR: ELEMENT 361 INSTANCE PART-1-1 NODE NUMBERS MUST BE POSITIVE.
 LINE IMAGE: 361, 839, 926, 837, 319

 ***ERROR: ELEMENT 362 INSTANCE PART-1-1 NODE NUMBERS MUST BE POSITIVE.
 LINE IMAGE: 362, 907, 858, 876, 287

 ***ERROR: ELEMENT 363 INSTANCE PART-1-1 NODE NUMBERS MUST BE POSITIVE.
 LINE IMAGE: 363, 821, 301, 864, 889

 ***ERROR: ELEMENT 364 INSTANCE PART-1-1 NODE NUMBERS MUST BE POSITIVE.
 LINE IMAGE: 364, 926, 271, 267, 46

 ***ERROR: ELEMENT 365 INSTANCE PART-1-1 NODE NUMBERS MUST BE POSITIVE.
 LINE IMAGE: 365, 925, 46, 926, 319

 ***ERROR: ELEMENT 366 INSTANCE PART-1-1 NODE NUMBERS MUST BE POSITIVE.
 LINE IMAGE: 366, 839, 926, 925, 271

 ***ERROR: ELEMENT 367 INSTANCE PART-1-1 NODE NUMBERS MUST BE POSITIVE.
 LINE IMAGE: 367, 839, 845, 925, 844

 ***ERROR: ELEMENT 368 INSTANCE PART-1-1 NODE NUMBERS MUST BE POSITIVE.
 LINE IMAGE: 368, 925, 46, 319, 47

 ***ERROR: ELEMENT 369 INSTANCE PART-1-1 NODE NUMBERS MUST BE POSITIVE.
 LINE IMAGE: 369, 891, 837, 315, 314

 ***ERROR: ELEMENT 370 INSTANCE PART-1-1 NODE NUMBERS MUST BE POSITIVE.
 LINE IMAGE: 370, 891, 923, 315, 837

 ***ERROR: ELEMENT 371 INSTANCE PART-1-1 NODE NUMBERS MUST BE POSITIVE.
 LINE IMAGE: 371, 891, 897, 263, 923

 ***ERROR: ELEMENT 372 INSTANCE PART-1-1 NODE NUMBERS MUST BE POSITIVE.
 LINE IMAGE: 372, 891, 837, 897, 923

 ***ERROR: ELEMENT 373 INSTANCE PART-1-1 NODE NUMBERS MUST BE POSITIVE.
 LINE IMAGE: 373, 859, 270, 840, 269

 ***ERROR: ELEMENT 374 INSTANCE PART-1-1 NODE NUMBERS MUST BE POSITIVE.
 LINE IMAGE: 374, 926, 897, 923, 267

 ***ERROR: ELEMENT 375 INSTANCE PART-1-1 NODE NUMBERS MUST BE POSITIVE.
 LINE IMAGE: 375, 839, 926, 897, 837

 ***ERROR: ELEMENT 376 INSTANCE PART-1-1 NODE NUMBERS MUST BE POSITIVE.
 LINE IMAGE: 376, 926, 315, 837, 319

 ***ERROR: ELEMENT 377 INSTANCE PART-1-1 NODE NUMBERS MUST BE POSITIVE.
 LINE IMAGE: 377, 926, 923, 45, 267

 ***ERROR: ELEMENT 378 INSTANCE PART-1-1 NODE NUMBERS MUST BE POSITIVE.
 LINE IMAGE: 378, 896, 882, 249, 245

 ***ERROR: ELEMENT 379 INSTANCE PART-1-1 NODE NUMBERS MUST BE POSITIVE.
 LINE IMAGE: 379, 862, 908, 248, 914

 ***ERROR: ELEMENT 380 INSTANCE PART-1-1 NODE NUMBERS MUST BE POSITIVE.
 LINE IMAGE: 380, 861, 277, 914, 278

 ***ERROR: ELEMENT 381 INSTANCE PART-1-1 NODE NUMBERS MUST BE POSITIVE.
 LINE IMAGE: 381, 252, 860, 862, 914

 ***ERROR: ELEMENT 382 INSTANCE PART-1-1 NODE NUMBERS MUST BE POSITIVE.
 LINE IMAGE: 382, 896, 862, 867, 908

 ***ERROR: ELEMENT 383 INSTANCE PART-1-1 NODE NUMBERS MUST BE POSITIVE.
 LINE IMAGE: 383, 825, 861, 863, 282

 ***ERROR: ELEMENT 384 INSTANCE PART-1-1 NODE NUMBERS MUST BE POSITIVE.
 LINE IMAGE: 384, 874, 875, 918, 824

 ***ERROR: ELEMENT 385 INSTANCE PART-1-1 NODE NUMBERS MUST BE POSITIVE.
 LINE IMAGE: 385, 823, 288, 878, 899

 ***ERROR: ELEMENT 386 INSTANCE PART-1-1 NODE NUMBERS MUST BE POSITIVE.
 LINE IMAGE: 386, 821, 899, 889, 822

 ***ERROR: ELEMENT 387 INSTANCE PART-1-1 NODE NUMBERS MUST BE POSITIVE.
 LINE IMAGE: 387, 820, 875, 823, 824

 ***ERROR: ELEMENT 388 INSTANCE PART-1-1 NODE NUMBERS MUST BE POSITIVE.
 LINE IMAGE: 388, 874, 59, 878, 288

 ***ERROR: ELEMENT 389 INSTANCE PART-1-1 NODE NUMBERS MUST BE POSITIVE.
 LINE IMAGE: 389, 823, 285, 822, 824

 ***ERROR: ELEMENT 390 INSTANCE PART-1-1 NODE NUMBERS MUST BE POSITIVE.
 LINE IMAGE: 390, 256, 38, 257, 879

 ***ERROR: ELEMENT 391 INSTANCE PART-1-1 NODE NUMBERS MUST BE POSITIVE.
 LINE IMAGE: 391, 885, 833, 298, 877

 ***ERROR: ELEMENT 392 INSTANCE PART-1-1 NODE NUMBERS MUST BE POSITIVE.
 LINE IMAGE: 392, 878, 60, 899, 288

 ***ERROR: ELEMENT 393 INSTANCE PART-1-1 NODE NUMBERS MUST BE POSITIVE.
 LINE IMAGE: 393, 823, 284, 899, 822

 ***ERROR: ELEMENT 394 INSTANCE PART-1-1 NODE NUMBERS MUST BE POSITIVE.
 LINE IMAGE: 394, 843, 322, 317, 321

 ***ERROR: ELEMENT 395 INSTANCE PART-1-1 NODE NUMBERS MUST BE POSITIVE.
 LINE IMAGE: 395, 838, 840, 872, 910

 ***ERROR: ELEMENT 396 INSTANCE PART-1-1 NODE NUMBERS MUST BE POSITIVE.
 LINE IMAGE: 396, 859, 839, 270, 897

 ***ERROR: ELEMENT 397 INSTANCE PART-1-1 NODE NUMBERS MUST BE POSITIVE.
 LINE IMAGE: 397, 835, 846, 832, 883

 ***ERROR: ELEMENT 398 INSTANCE PART-1-1 NODE NUMBERS MUST BE POSITIVE.
 LINE IMAGE: 398, 851, 916, 897, 852

 ***ERROR: ELEMENT 399 INSTANCE PART-1-1 NODE NUMBERS MUST BE POSITIVE.
 LINE IMAGE: 399, 839, 897, 271, 270

 ***ERROR: ELEMENT 400 INSTANCE PART-1-1 NODE NUMBERS MUST BE POSITIVE.
 LINE IMAGE: 400, 916, 897, 262, 263

 ***ERROR: ELEMENT 401 INSTANCE PART-1-1 NODE NUMBERS MUST BE POSITIVE.
 LINE IMAGE: 401, 897, 266, 852, 262

 ***ERROR: ELEMENT 402 INSTANCE PART-1-1 NODE NUMBERS MUST BE POSITIVE.
 LINE IMAGE: 402, 926, 271, 897, 267

 ***ERROR: ELEMENT 403 INSTANCE PART-1-1 NODE NUMBERS MUST BE POSITIVE.
 LINE IMAGE: 403, 882, 250, 249, 245

 ***ERROR: ELEMENT 404 INSTANCE PART-1-1 NODE NUMBERS MUST BE POSITIVE.
 LINE IMAGE: 404, 849, 854, 853, 863

 ***ERROR: ELEMENT 405 INSTANCE PART-1-1 NODE NUMBERS MUST BE POSITIVE.
 LINE IMAGE: 405, 926, 923, 897, 837

 ***ERROR: ELEMENT 406 INSTANCE PART-1-1 NODE NUMBERS MUST BE POSITIVE.
 LINE IMAGE: 406, 856, 835, 830, 832

 ***ERROR: ELEMENT 407 INSTANCE PART-1-1 NODE NUMBERS MUST BE POSITIVE.
 LINE IMAGE: 407, 855, 258, 848, 852

 ***ERROR: ELEMENT 408 INSTANCE PART-1-1 NODE NUMBERS MUST BE POSITIVE.
 LINE IMAGE: 408, 916, 852, 855, 262

 ***ERROR: ELEMENT 409 INSTANCE PART-1-1 NODE NUMBERS MUST BE POSITIVE.
 LINE IMAGE: 409, 852, 855, 262, 261

 ***ERROR: ELEMENT 410 INSTANCE PART-1-1 NODE NUMBERS MUST BE POSITIVE.
 LINE IMAGE: 410, 855, 253, 257, 854

 ***ERROR: ELEMENT 411 INSTANCE PART-1-1 NODE NUMBERS MUST BE POSITIVE.
 LINE IMAGE: 411, 848, 862, 849, 850

 ***ERROR: ELEMENT 412 INSTANCE PART-1-1 NODE NUMBERS MUST BE POSITIVE.
 LINE IMAGE: 412, 885, 892, 883, 890

 ***ERROR: ELEMENT 413 INSTANCE PART-1-1 NODE NUMBERS MUST BE POSITIVE.
 LINE IMAGE: 413, 885, 294, 877, 298

 ***ERROR: ELEMENT 414 INSTANCE PART-1-1 NODE NUMBERS MUST BE POSITIVE.
 LINE IMAGE: 414, 884, 30, 29, 294

 ***ERROR: ELEMENT 415 INSTANCE PART-1-1 NODE NUMBERS MUST BE POSITIVE.
 LINE IMAGE: 415, 884, 29, 30, 246

 ***ERROR: ELEMENT 416 INSTANCE PART-1-1 NODE NUMBERS MUST BE POSITIVE.
 LINE IMAGE: 416, 891, 915, 310, 898

 ***ERROR: ELEMENT 417 INSTANCE PART-1-1 NODE NUMBERS MUST BE POSITIVE.
 LINE IMAGE: 417, 884, 29, 827, 293

 ***ERROR: ELEMENT 418 INSTANCE PART-1-1 NODE NUMBERS MUST BE POSITIVE.
 LINE IMAGE: 418, 882, 884, 245, 827

 ***ERROR: ELEMENT 419 INSTANCE PART-1-1 NODE NUMBERS MUST BE POSITIVE.
 LINE IMAGE: 419, 921, 32, 247, 31

 ***ERROR: ELEMENT 420 INSTANCE PART-1-1 NODE NUMBERS MUST BE POSITIVE.
 LINE IMAGE: 420, 835, 897, 891, 837

 ***ERROR: ELEMENT 421 INSTANCE PART-1-1 NODE NUMBERS MUST BE POSITIVE.
 LINE IMAGE: 421, 916, 855, 37, 262

 ***ERROR: ELEMENT 422 INSTANCE PART-1-1 NODE NUMBERS MUST BE POSITIVE.
 LINE IMAGE: 422, 891, 917, 923, 263

 ***ERROR: ELEMENT 423 INSTANCE PART-1-1 NODE NUMBERS MUST BE POSITIVE.
 LINE IMAGE: 423, 923, 311, 45, 44

 ***ERROR: ELEMENT 424 INSTANCE PART-1-1 NODE NUMBERS MUST BE POSITIVE.
 LINE IMAGE: 424, 917, 311, 923, 44

 ***ERROR: ELEMENT 425 INSTANCE PART-1-1 NODE NUMBERS MUST BE POSITIVE.
 LINE IMAGE: 425, 923, 45, 267, 263

 ***ERROR: ELEMENT 426 INSTANCE PART-1-1 NODE NUMBERS MUST BE POSITIVE.
 LINE IMAGE: 426, 830, 857, 832, 820

 ***ERROR: ELEMENT 427 INSTANCE PART-1-1 NODE NUMBERS MUST BE POSITIVE.
 LINE IMAGE: 427, 886, 314, 310, 309

 ***ERROR: ELEMENT 428 INSTANCE PART-1-1 NODE NUMBERS MUST BE POSITIVE.
 LINE IMAGE: 428, 820, 825, 830, 857

 ***ERROR: ELEMENT 429 INSTANCE PART-1-1 NODE NUMBERS MUST BE POSITIVE.
 LINE IMAGE: 429, 821, 300, 889, 899

 ***ERROR: ELEMENT 430 INSTANCE PART-1-1 NODE NUMBERS MUST BE POSITIVE.
 LINE IMAGE: 430, 831, 873, 875, 866

 ***ERROR: ELEMENT 431 INSTANCE PART-1-1 NODE NUMBERS MUST BE POSITIVE.
 LINE IMAGE: 431, 821, 300, 899, 304

 ***ERROR: ELEMENT 432 INSTANCE PART-1-1 NODE NUMBERS MUST BE POSITIVE.
 LINE IMAGE: 432, 892, 833, 864, 302

 ***ERROR: ELEMENT 433 INSTANCE PART-1-1 NODE NUMBERS MUST BE POSITIVE.
 LINE IMAGE: 433, 873, 71, 335, 70

 ***ERROR: ELEMENT 434 INSTANCE PART-1-1 NODE NUMBERS MUST BE POSITIVE.
 LINE IMAGE: 434, 265, 264, 879, 260

 ***ERROR: ELEMENT 435 INSTANCE PART-1-1 NODE NUMBERS MUST BE POSITIVE.
 LINE IMAGE: 435, 873, 71, 339, 335

 ***ERROR: ELEMENT 436 INSTANCE PART-1-1 NODE NUMBERS MUST BE POSITIVE.
 LINE IMAGE: 436, 869, 906, 905, 272

 ***ERROR: ELEMENT 437 INSTANCE PART-1-1 NODE NUMBERS MUST BE POSITIVE.
 LINE IMAGE: 437, 871, 905, 868, 919

 ***ERROR: ELEMENT 438 INSTANCE PART-1-1 NODE NUMBERS MUST BE POSITIVE.
 LINE IMAGE: 438, 905, 52, 6, 291

 ***ERROR: ELEMENT 439 INSTANCE PART-1-1 NODE NUMBERS MUST BE POSITIVE.
 LINE IMAGE: 439, 868, 919, 905, 336

 ***ERROR: ELEMENT 440 INSTANCE PART-1-1 NODE NUMBERS MUST BE POSITIVE.
 LINE IMAGE: 440, 905, 51, 52, 272

 ***ERROR: ELEMENT 441 INSTANCE PART-1-1 NODE NUMBERS MUST BE POSITIVE.
 LINE IMAGE: 441, 905, 291, 6, 56

 ***ERROR: ELEMENT 442 INSTANCE PART-1-1 NODE NUMBERS MUST BE POSITIVE.
 LINE IMAGE: 442, 905, 56, 51, 336

 ***ERROR: ELEMENT 443 INSTANCE PART-1-1 NODE NUMBERS MUST BE POSITIVE.
 LINE IMAGE: 443, 842, 330, 872, 329

 ***ERROR: ELEMENT 444 INSTANCE PART-1-1 NODE NUMBERS MUST BE POSITIVE.
 LINE IMAGE: 444, 865, 331, 69, 70

 ***ERROR: ELEMENT 445 INSTANCE PART-1-1 NODE NUMBERS MUST BE POSITIVE.
 LINE IMAGE: 445, 820, 870, 875, 824

 ***ERROR: ELEMENT 446 INSTANCE PART-1-1 NODE NUMBERS MUST BE POSITIVE.
 LINE IMAGE: 446, 865, 866, 331, 335

 ***ERROR: ELEMENT 447 INSTANCE PART-1-1 NODE NUMBERS MUST BE POSITIVE.
 LINE IMAGE: 447, 865, 305, 69, 306

 ***ERROR: ELEMENT 448 INSTANCE PART-1-1 NODE NUMBERS MUST BE POSITIVE.
 LINE IMAGE: 448, 865, 335, 331, 70

 ***ERROR: ELEMENT 449 INSTANCE PART-1-1 NODE NUMBERS MUST BE POSITIVE.
 LINE IMAGE: 449, 842, 866, 330, 893

 ***ERROR: ELEMENT 450 INSTANCE PART-1-1 NODE NUMBERS MUST BE POSITIVE.
 LINE IMAGE: 450, 875, 334, 866, 335

 ***ERROR: ELEMENT 451 INSTANCE PART-1-1 NODE NUMBERS MUST BE POSITIVE.
 LINE IMAGE: 451, 892, 864, 866, 306

 ***ERROR: ELEMENT 452 INSTANCE PART-1-1 NODE NUMBERS MUST BE POSITIVE.
 LINE IMAGE: 452, 880, 54, 55, 264

 ***ERROR: ELEMENT 453 INSTANCE PART-1-1 NODE NUMBERS MUST BE POSITIVE.
 LINE IMAGE: 453, 880, 55, 924, 260

 ***ERROR: ELEMENT 454 INSTANCE PART-1-1 NODE NUMBERS MUST BE POSITIVE.
 LINE IMAGE: 454, 825, 822, 281, 285

 ***ERROR: ELEMENT 455 INSTANCE PART-1-1 NODE NUMBERS MUST BE POSITIVE.
 LINE IMAGE: 455, 861, 863, 278, 860

 ***ERROR: ELEMENT 456 INSTANCE PART-1-1 NODE NUMBERS MUST BE POSITIVE.
 LINE IMAGE: 456, 838, 869, 910, 868

 ***ERROR: ELEMENT 457 INSTANCE PART-1-1 NODE NUMBERS MUST BE POSITIVE.
 LINE IMAGE: 457, 845, 842, 912, 844

 ***ERROR: ELEMENT 458 INSTANCE PART-1-1 NODE NUMBERS MUST BE POSITIVE.
 LINE IMAGE: 458, 912, 323, 844, 322

 ***ERROR: ELEMENT 459 INSTANCE PART-1-1 NODE NUMBERS MUST BE POSITIVE.
 LINE IMAGE: 459, 833, 885, 298, 302

 ***ERROR: ELEMENT 460 INSTANCE PART-1-1 NODE NUMBERS MUST BE POSITIVE.
 LINE IMAGE: 460, 845, 842, 329, 325

 ***ERROR: ELEMENT 461 INSTANCE PART-1-1 NODE NUMBERS MUST BE POSITIVE.
 LINE IMAGE: 461, 905, 56, 6, 51

 ***ERROR: ELEMENT 462 INSTANCE PART-1-1 NODE NUMBERS MUST BE POSITIVE.
 LINE IMAGE: 462, 911, 47, 925, 323

 ***ERROR: ELEMENT 463 INSTANCE PART-1-1 NODE NUMBERS MUST BE POSITIVE.
 LINE IMAGE: 463, 911, 323, 925, 844

 ***ERROR: ELEMENT 464 INSTANCE PART-1-1 NODE NUMBERS MUST BE POSITIVE.
 LINE IMAGE: 464, 852, 265, 261, 266

 ***ERROR: ELEMENT 465 INSTANCE PART-1-1 NODE NUMBERS MUST BE POSITIVE.
 LINE IMAGE: 465, 918, 868, 337, 919

 ***ERROR: ELEMENT 466 INSTANCE PART-1-1 NODE NUMBERS MUST BE POSITIVE.
 LINE IMAGE: 466, 871, 290, 918, 824

 ***ERROR: ELEMENT 467 INSTANCE PART-1-1 NODE NUMBERS MUST BE POSITIVE.
 LINE IMAGE: 467, 918, 824, 290, 289

 ***ERROR: ELEMENT 468 INSTANCE PART-1-1 NODE NUMBERS MUST BE POSITIVE.
 LINE IMAGE: 468, 874, 339, 878, 59

 ***ERROR: ELEMENT 469 INSTANCE PART-1-1 NODE NUMBERS MUST BE POSITIVE.
 LINE IMAGE: 469, 875, 918, 824, 870

 ***ERROR: ELEMENT 470 INSTANCE PART-1-1 NODE NUMBERS MUST BE POSITIVE.
 LINE IMAGE: 470, 885, 833, 846, 883

 ***ERROR: ELEMENT 471 INSTANCE PART-1-1 NODE NUMBERS MUST BE POSITIVE.
 LINE IMAGE: 471, 887, 886, 888, 308

 ***ERROR: ELEMENT 472 INSTANCE PART-1-1 NODE NUMBERS MUST BE POSITIVE.
 LINE IMAGE: 472, 921, 887, 64, 295

 ***ERROR: ELEMENT 473 INSTANCE PART-1-1 NODE NUMBERS MUST BE POSITIVE.
 LINE IMAGE: 473, 887, 65, 64, 295

 ***ERROR: ELEMENT 474 INSTANCE PART-1-1 NODE NUMBERS MUST BE POSITIVE.
 LINE IMAGE: 474, 887, 299, 65, 295

 ***ERROR: ELEMENT 475 INSTANCE PART-1-1 NODE NUMBERS MUST BE POSITIVE.
 LINE IMAGE: 475, 821, 878, 304, 899

 ***ERROR: ELEMENT 476 INSTANCE PART-1-1 NODE NUMBERS MUST BE POSITIVE.
 LINE IMAGE: 476, 821, 874, 873, 878

 ***ERROR: ELEMENT 477 INSTANCE PART-1-1 NODE NUMBERS MUST BE POSITIVE.
 LINE IMAGE: 477, 889, 899, 904, 822

 ***ERROR: ELEMENT 478 INSTANCE PART-1-1 NODE NUMBERS MUST BE POSITIVE.
 LINE IMAGE: 478, 899, 304, 61, 60

 ***ERROR: ELEMENT 479 INSTANCE PART-1-1 NODE NUMBERS MUST BE POSITIVE.
 LINE IMAGE: 479, 878, 304, 899, 60

 ***ERROR: ELEMENT 480 INSTANCE PART-1-1 NODE NUMBERS MUST BE POSITIVE.
 LINE IMAGE: 480, 899, 904, 61, 300

 ***ERROR: ELEMENT 481 INSTANCE PART-1-1 NODE NUMBERS MUST BE POSITIVE.
 LINE IMAGE: 481, 911, 47, 323, 5

 ***ERROR: ELEMENT 482 INSTANCE PART-1-1 NODE NUMBERS MUST BE POSITIVE.
 LINE IMAGE: 482, 911, 925, 47, 275

 ***ERROR: ELEMENT 483 INSTANCE PART-1-1 NODE NUMBERS MUST BE POSITIVE.
 LINE IMAGE: 483, 911, 845, 275, 927

 ***ERROR: ELEMENT 484 INSTANCE PART-1-1 NODE NUMBERS MUST BE POSITIVE.
 LINE IMAGE: 484, 911, 72, 324, 5

 ***ERROR: ELEMENT 485 INSTANCE PART-1-1 NODE NUMBERS MUST BE POSITIVE.
 LINE IMAGE: 485, 911, 912, 72, 323

 ***ERROR: ELEMENT 486 INSTANCE PART-1-1 NODE NUMBERS MUST BE POSITIVE.
 LINE IMAGE: 486, 911, 845, 927, 324

 ***ERROR: ELEMENT 487 INSTANCE PART-1-1 NODE NUMBERS MUST BE POSITIVE.
 LINE IMAGE: 487, 855, 37, 262, 38

 ***ERROR: ELEMENT 488 INSTANCE PART-1-1 NODE NUMBERS MUST BE POSITIVE.
 LINE IMAGE: 488, 853, 264, 879, 265

 ***ERROR: ELEMENT 489 INSTANCE PART-1-1 NODE NUMBERS MUST BE POSITIVE.
 LINE IMAGE: 489, 857, 863, 853, 858

 ***ERROR: ELEMENT 490 INSTANCE PART-1-1 NODE NUMBERS MUST BE POSITIVE.
 LINE IMAGE: 490, 860, 879, 880, 924

 ***ERROR: ELEMENT 491 INSTANCE PART-1-1 NODE NUMBERS MUST BE POSITIVE.
 LINE IMAGE: 491, 855, 879, 257, 38

 ***ERROR: ELEMENT 492 INSTANCE PART-1-1 NODE NUMBERS MUST BE POSITIVE.
 LINE IMAGE: 492, 911, 845, 844, 925

 ***ERROR: ELEMENT 493 INSTANCE PART-1-1 NODE NUMBERS MUST BE POSITIVE.
 LINE IMAGE: 493, 845, 912, 842, 325

 ***ERROR: ELEMENT 494 INSTANCE PART-1-1 NODE NUMBERS MUST BE POSITIVE.
 LINE IMAGE: 494, 911, 845, 925, 275

 ***ERROR: ELEMENT 495 INSTANCE PART-1-1 NODE NUMBERS MUST BE POSITIVE.
 LINE IMAGE: 495, 834, 841, 872, 842

 ***ERROR: ELEMENT 496 INSTANCE PART-1-1 NODE NUMBERS MUST BE POSITIVE.
 LINE IMAGE: 496, 839, 927, 274, 275

 ***ERROR: ELEMENT 497 INSTANCE PART-1-1 NODE NUMBERS MUST BE POSITIVE.
 LINE IMAGE: 497, 911, 845, 912, 844

 ***ERROR: ELEMENT 498 INSTANCE PART-1-1 NODE NUMBERS MUST BE POSITIVE.
 LINE IMAGE: 498, 843, 913, 844, 322

 ***ERROR: ELEMENT 499 INSTANCE PART-1-1 NODE NUMBERS MUST BE POSITIVE.
 LINE IMAGE: 499, 891, 898, 851, 915

 ***ERROR: ELEMENT 500 INSTANCE PART-1-1 NODE NUMBERS MUST BE POSITIVE.
 LINE IMAGE: 500, 869, 909, 906, 273

 ***ERROR: ELEMENT 501 INSTANCE PART-1-1 NODE NUMBERS MUST BE POSITIVE.
 LINE IMAGE: 501, 891, 916, 263, 897

 ***ERROR: ELEMENT 502 INSTANCE PART-1-1 NODE NUMBERS MUST BE POSITIVE.
 LINE IMAGE: 502, 834, 856, 832, 835

 ***ERROR: ELEMENT 503 INSTANCE PART-1-1 NODE NUMBERS MUST BE POSITIVE.
 LINE IMAGE: 503, 915, 33, 922, 309

 ***ERROR: ELEMENT 504 INSTANCE PART-1-1 NODE NUMBERS MUST BE POSITIVE.
 LINE IMAGE: 504, 851, 255, 898, 259

 ***ERROR: ELEMENT 505 INSTANCE PART-1-1 NODE NUMBERS MUST BE POSITIVE.
 LINE IMAGE: 505, 889, 895, 904, 296

 ***ERROR: ELEMENT 506 INSTANCE PART-1-1 NODE NUMBERS MUST BE POSITIVE.
 LINE IMAGE: 506, 904, 280, 822, 284

 ***ERROR: ELEMENT 507 INSTANCE PART-1-1 NODE NUMBERS MUST BE POSITIVE.
 LINE IMAGE: 507, 899, 904, 822, 284

 ***ERROR: ELEMENT 508 INSTANCE PART-1-1 NODE NUMBERS MUST BE POSITIVE.
 LINE IMAGE: 508, 889, 904, 899, 300

 ***ERROR: ELEMENT 509 INSTANCE PART-1-1 NODE NUMBERS MUST BE POSITIVE.
 LINE IMAGE: 509, 868, 337, 919, 336

 ***ERROR: ELEMENT 510 INSTANCE PART-1-1 NODE NUMBERS MUST BE POSITIVE.
 LINE IMAGE: 510, 871, 868, 905, 907

 ***ERROR: ELEMENT 511 INSTANCE PART-1-1 NODE NUMBERS MUST BE POSITIVE.
 LINE IMAGE: 511, 871, 919, 291, 905

 ***ERROR: ELEMENT 512 INSTANCE PART-1-1 NODE NUMBERS MUST BE POSITIVE.
 LINE IMAGE: 512, 871, 824, 918, 870

 ***ERROR: ELEMENT 513 INSTANCE PART-1-1 NODE NUMBERS MUST BE POSITIVE.
 LINE IMAGE: 513, 825, 282, 863, 286

 ***ERROR: ELEMENT 514 INSTANCE PART-1-1 NODE NUMBERS MUST BE POSITIVE.
 LINE IMAGE: 514, 822, 824, 825, 820

 ***ERROR: ELEMENT 515 INSTANCE PART-1-1 NODE NUMBERS MUST BE POSITIVE.
 LINE IMAGE: 515, 848, 856, 853, 852

 ***ERROR: ELEMENT 516 INSTANCE PART-1-1 NODE NUMBERS MUST BE POSITIVE.
 LINE IMAGE: 516, 892, 303, 900, 302

 ***ERROR: ELEMENT 517 INSTANCE PART-1-1 NODE NUMBERS MUST BE POSITIVE.
 LINE IMAGE: 517, 894, 920, 893, 901

 ***ERROR: ELEMENT 518 INSTANCE PART-1-1 NODE NUMBERS MUST BE POSITIVE.
 LINE IMAGE: 518, 894, 843, 321, 901

 ***ERROR: ELEMENT 519 INSTANCE PART-1-1 NODE NUMBERS MUST BE POSITIVE.
 LINE IMAGE: 519, 920, 68, 75, 8

 ***ERROR: ELEMENT 520 INSTANCE PART-1-1 NODE NUMBERS MUST BE POSITIVE.
 LINE IMAGE: 520, 843, 326, 842, 913

 ***ERROR: ELEMENT 521 INSTANCE PART-1-1 NODE NUMBERS MUST BE POSITIVE.
 LINE IMAGE: 521, 841, 890, 836, 883

 ***ERROR: ELEMENT 522 INSTANCE PART-1-1 NODE NUMBERS MUST BE POSITIVE.
 LINE IMAGE: 522, 885, 887, 886, 888

 ***ERROR: ELEMENT 523 INSTANCE PART-1-1 NODE NUMBERS MUST BE POSITIVE.
 LINE IMAGE: 523, 894, 843, 317, 321

 ***ERROR: ELEMENT 524 INSTANCE PART-1-1 NODE NUMBERS MUST BE POSITIVE.
 LINE IMAGE: 524, 885, 887, 900, 312

 ***ERROR: ELEMENT 525 INSTANCE PART-1-1 NODE NUMBERS MUST BE POSITIVE.
 LINE IMAGE: 525, 848, 253, 847, 254

 ***ERROR: ELEMENT 526 INSTANCE PART-1-1 NODE NUMBERS MUST BE POSITIVE.
 LINE IMAGE: 526, 835, 314, 891, 886

 ***ERROR: ELEMENT 527 INSTANCE PART-1-1 NODE NUMBERS MUST BE POSITIVE.
 LINE IMAGE: 527, 835, 891, 881, 886

 ***ERROR: ELEMENT 528 INSTANCE PART-1-1 NODE NUMBERS MUST BE POSITIVE.
 LINE IMAGE: 528, 835, 847, 881, 851

 ***ERROR: ELEMENT 529 INSTANCE PART-1-1 NODE NUMBERS MUST BE POSITIVE.
 LINE IMAGE: 529, 915, 34, 251, 33

 ***ERROR: ELEMENT 530 INSTANCE PART-1-1 NODE NUMBERS MUST BE POSITIVE.
 LINE IMAGE: 530, 915, 881, 886, 922

 ***ERROR: ELEMENT 531 INSTANCE PART-1-1 NODE NUMBERS MUST BE POSITIVE.
 LINE IMAGE: 531, 891, 310, 314, 315

 ***ERROR: ELEMENT 532 INSTANCE PART-1-1 NODE NUMBERS MUST BE POSITIVE.
 LINE IMAGE: 532, 915, 34, 898, 255

 ***ERROR: ELEMENT 533 INSTANCE PART-1-1 NODE NUMBERS MUST BE POSITIVE.
 LINE IMAGE: 533, 898, 34, 35, 255

 ***ERROR: ELEMENT 534 INSTANCE PART-1-1 NODE NUMBERS MUST BE POSITIVE.
 LINE IMAGE: 534, 891, 851, 916, 897

 ***ERROR: ELEMENT 535 INSTANCE PART-1-1 NODE NUMBERS MUST BE POSITIVE.
 LINE IMAGE: 535, 917, 898, 35, 259

 ***ERROR: ELEMENT 536 INSTANCE PART-1-1 NODE NUMBERS MUST BE POSITIVE.
 LINE IMAGE: 536, 839, 319, 925, 926

 ***ERROR: ELEMENT 537 INSTANCE PART-1-1 NODE NUMBERS MUST BE POSITIVE.
 LINE IMAGE: 537, 845, 927, 328, 909

 ***ERROR: ELEMENT 538 INSTANCE PART-1-1 NODE NUMBERS MUST BE POSITIVE.
 LINE IMAGE: 538, 840, 927, 909, 274

 ***ERROR: ELEMENT 539 INSTANCE PART-1-1 NODE NUMBERS MUST BE POSITIVE.
 LINE IMAGE: 539, 894, 841, 890, 317

 ***ERROR: ELEMENT 540 INSTANCE PART-1-1 NODE NUMBERS MUST BE POSITIVE.
 LINE IMAGE: 540, 843, 321, 913, 322

 ***ERROR: ELEMENT 541 INSTANCE PART-1-1 NODE NUMBERS MUST BE POSITIVE.
 LINE IMAGE: 541, 845, 927, 324, 328

 ***ERROR: ELEMENT 542 INSTANCE PART-1-1 NODE NUMBERS MUST BE POSITIVE.
 LINE IMAGE: 542, 900, 892, 302, 885

 ***ERROR: ELEMENT 543 INSTANCE PART-1-1 NODE NUMBERS MUST BE POSITIVE.
 LINE IMAGE: 543, 831, 832, 872, 870

 ***ERROR: ELEMENT 544 INSTANCE PART-1-1 NODE NUMBERS MUST BE POSITIVE.
 LINE IMAGE: 544, 896, 245, 249, 244

 ***ERROR: ELEMENT 545 INSTANCE PART-1-1 NODE NUMBERS MUST BE POSITIVE.
 LINE IMAGE: 545, 912, 844, 913, 322

 ***ERROR: ELEMENT 546 INSTANCE PART-1-1 NODE NUMBERS MUST BE POSITIVE.
 LINE IMAGE: 546, 834, 856, 838, 832

 ***ERROR: ELEMENT 547 INSTANCE PART-1-1 NODE NUMBERS MUST BE POSITIVE.
 LINE IMAGE: 547, 842, 866, 872, 330

 ***ERROR: ELEMENT 548 INSTANCE PART-1-1 NODE NUMBERS MUST BE POSITIVE.
 LINE IMAGE: 548, 912, 322, 913, 73

 ***ERROR: ELEMENT 549 INSTANCE PART-1-1 NODE NUMBERS MUST BE POSITIVE.
 LINE IMAGE: 549, 843, 322, 844, 318

 ***ERROR: ELEMENT 550 INSTANCE PART-1-1 NODE NUMBERS MUST BE POSITIVE.
 LINE IMAGE: 550, 867, 895, 280, 904

 ***ERROR: ELEMENT 551 INSTANCE PART-1-1 NODE NUMBERS MUST BE POSITIVE.
 LINE IMAGE: 551, 833, 877, 297, 298

 ***ERROR: ELEMENT 552 INSTANCE PART-1-1 NODE NUMBERS MUST BE POSITIVE.
 LINE IMAGE: 552, 829, 833, 889, 822

 ***ERROR: ELEMENT 553 INSTANCE PART-1-1 NODE NUMBERS MUST BE POSITIVE.
 LINE IMAGE: 553, 821, 899, 823, 878

 ***ERROR: ELEMENT 554 INSTANCE PART-1-1 NODE NUMBERS MUST BE POSITIVE.
 LINE IMAGE: 554, 874, 338, 59, 58

 ***ERROR: ELEMENT 555 INSTANCE PART-1-1 NODE NUMBERS MUST BE POSITIVE.
 LINE IMAGE: 555, 823, 824, 289, 285

 ***ERROR: ELEMENT 556 INSTANCE PART-1-1 NODE NUMBERS MUST BE POSITIVE.
 LINE IMAGE: 556, 911, 5, 275, 47

 ***ERROR: ELEMENT 557 INSTANCE PART-1-1 NODE NUMBERS MUST BE POSITIVE.
 LINE IMAGE: 557, 853, 858, 880, 264

 ***ERROR: ELEMENT 558 INSTANCE PART-1-1 NODE NUMBERS MUST BE POSITIVE.
 LINE IMAGE: 558, 907, 53, 876, 268

 ***ERROR: ELEMENT 559 INSTANCE PART-1-1 NODE NUMBERS MUST BE POSITIVE.
 LINE IMAGE: 559, 876, 863, 880, 283

 ***ERROR: ELEMENT 560 INSTANCE PART-1-1 NODE NUMBERS MUST BE POSITIVE.
 LINE IMAGE: 560, 834, 838, 840, 872

 ***ERROR: ELEMENT 561 INSTANCE PART-1-1 NODE NUMBERS MUST BE POSITIVE.
 LINE IMAGE: 561, 871, 858, 907, 287

 ***ERROR: ELEMENT 562 INSTANCE PART-1-1 NODE NUMBERS MUST BE POSITIVE.
 LINE IMAGE: 562, 838, 869, 840, 910

 ***ERROR: ELEMENT 563 INSTANCE PART-1-1 NODE NUMBERS MUST BE POSITIVE.
 LINE IMAGE: 563, 869, 859, 269, 858

 ***ERROR: ELEMENT 564 INSTANCE PART-1-1 NODE NUMBERS MUST BE POSITIVE.
 LINE IMAGE: 564, 857, 824, 871, 870

 ***ERROR: ELEMENT 565 INSTANCE PART-1-1 NODE NUMBERS MUST BE POSITIVE.
 LINE IMAGE: 565, 839, 275, 845, 927

 ***ERROR: ELEMENT 566 INSTANCE PART-1-1 NODE NUMBERS MUST BE POSITIVE.
 LINE IMAGE: 566, 911, 324, 927, 48

 ***ERROR: ELEMENT 567 INSTANCE PART-1-1 NODE NUMBERS MUST BE POSITIVE.
 LINE IMAGE: 567, 927, 49, 909, 274

 ***ERROR: ELEMENT 568 INSTANCE PART-1-1 NODE NUMBERS MUST BE POSITIVE.
 LINE IMAGE: 568, 839, 840, 270, 274

 ***ERROR: ELEMENT 569 INSTANCE PART-1-1 NODE NUMBERS MUST BE POSITIVE.
 LINE IMAGE: 569, 842, 912, 844, 913

 ***ERROR: ELEMENT 570 INSTANCE PART-1-1 NODE NUMBERS MUST BE POSITIVE.
 LINE IMAGE: 570, 839, 840, 274, 927

 ***ERROR: ELEMENT 571 INSTANCE PART-1-1 NODE NUMBERS MUST BE POSITIVE.
 LINE IMAGE: 571, 927, 48, 328, 49

 ***ERROR: ELEMENT 572 INSTANCE PART-1-1 NODE NUMBERS MUST BE POSITIVE.
 LINE IMAGE: 572, 896, 249, 882, 850

 ***ERROR: ELEMENT 573 INSTANCE PART-1-1 NODE NUMBERS MUST BE POSITIVE.
 LINE IMAGE: 573, 867, 822, 280, 281

 ***ERROR: ELEMENT 574 INSTANCE PART-1-1 NODE NUMBERS MUST BE POSITIVE.
 LINE IMAGE: 574, 829, 861, 867, 862

 ***ERROR: ELEMENT 575 INSTANCE PART-1-1 NODE NUMBERS MUST BE POSITIVE.
 LINE IMAGE: 575, 826, 293, 877, 827

 ***ERROR: ELEMENT 576 INSTANCE PART-1-1 NODE NUMBERS MUST BE POSITIVE.
 LINE IMAGE: 576, 829, 867, 281, 822

 ***ERROR: ELEMENT 577 INSTANCE PART-1-1 NODE NUMBERS MUST BE POSITIVE.
 LINE IMAGE: 577, 865, 903, 69, 331

 ***ERROR: ELEMENT 578 INSTANCE PART-1-1 NODE NUMBERS MUST BE POSITIVE.
 LINE IMAGE: 578, 893, 326, 901, 327

 ***ERROR: ELEMENT 579 INSTANCE PART-1-1 NODE NUMBERS MUST BE POSITIVE.
 LINE IMAGE: 579, 880, 260, 924, 879

 ***ERROR: ELEMENT 580 INSTANCE PART-1-1 NODE NUMBERS MUST BE POSITIVE.
 LINE IMAGE: 580, 924, 55, 4, 260

 ***ERROR: ELEMENT 581 INSTANCE PART-1-1 NODE NUMBERS MUST BE POSITIVE.
 LINE IMAGE: 581, 924, 39, 260, 4

 ***ERROR: ELEMENT 582 INSTANCE PART-1-1 NODE NUMBERS MUST BE POSITIVE.
 LINE IMAGE: 582, 924, 256, 879, 39

 ***ERROR: ELEMENT 583 INSTANCE PART-1-1 NODE NUMBERS MUST BE POSITIVE.
 LINE IMAGE: 583, 876, 858, 268, 264

 ***ERROR: ELEMENT 584 INSTANCE PART-1-1 NODE NUMBERS MUST BE POSITIVE.
 LINE IMAGE: 584, 924, 55, 279, 40

 ***ERROR: ELEMENT 585 INSTANCE PART-1-1 NODE NUMBERS MUST BE POSITIVE.
 LINE IMAGE: 585, 849, 825, 829, 861

 ***ERROR: ELEMENT 586 INSTANCE PART-1-1 NODE NUMBERS MUST BE POSITIVE.
 LINE IMAGE: 586, 821, 889, 300, 301

 ***ERROR: ELEMENT 587 INSTANCE PART-1-1 NODE NUMBERS MUST BE POSITIVE.
 LINE IMAGE: 587, 895, 280, 904, 62

 ***ERROR: ELEMENT 588 INSTANCE PART-1-1 NODE NUMBERS MUST BE POSITIVE.
 LINE IMAGE: 588, 867, 904, 889, 895

 ***ERROR: ELEMENT 589 INSTANCE PART-1-1 NODE NUMBERS MUST BE POSITIVE.
 LINE IMAGE: 589, 833, 297, 889, 301

 ***ERROR: ELEMENT 590 INSTANCE PART-1-1 NODE NUMBERS MUST BE POSITIVE.
 LINE IMAGE: 590, 903, 69, 327, 68

 ***ERROR: ELEMENT 591 INSTANCE PART-1-1 NODE NUMBERS MUST BE POSITIVE.
 LINE IMAGE: 591, 892, 866, 903, 306

 ***ERROR: ELEMENT 592 INSTANCE PART-1-1 NODE NUMBERS MUST BE POSITIVE.
 LINE IMAGE: 592, 866, 330, 893, 331

 ***ERROR: ELEMENT 593 INSTANCE PART-1-1 NODE NUMBERS MUST BE POSITIVE.
 LINE IMAGE: 593, 835, 886, 836, 314

 ***ERROR: ELEMENT 594 INSTANCE PART-1-1 NODE NUMBERS MUST BE POSITIVE.
 LINE IMAGE: 594, 246, 888, 247, 30

 ***ERROR: ELEMENT 595 INSTANCE PART-1-1 NODE NUMBERS MUST BE POSITIVE.
 LINE IMAGE: 595, 902, 920, 894, 320

 ***ERROR: ELEMENT 596 INSTANCE PART-1-1 NODE NUMBERS MUST BE POSITIVE.
 LINE IMAGE: 596, 901, 320, 74, 321

 ***ERROR: ELEMENT 597 INSTANCE PART-1-1 NODE NUMBERS MUST BE POSITIVE.
 LINE IMAGE: 597, 901, 74, 75, 327

 ***ERROR: ELEMENT 598 INSTANCE PART-1-1 NODE NUMBERS MUST BE POSITIVE.
 LINE IMAGE: 598, 901, 74, 320, 75

 ***ERROR: ELEMENT 599 INSTANCE PART-1-1 NODE NUMBERS MUST BE POSITIVE.
 LINE IMAGE: 599, 921, 888, 887, 295

 ***ERROR: ELEMENT 600 INSTANCE PART-1-1 NODE NUMBERS MUST BE POSITIVE.
 LINE IMAGE: 600, 877, 884, 827, 293

 ***ERROR: ELEMENT 601 INSTANCE PART-1-1 NODE NUMBERS MUST BE POSITIVE.
 LINE IMAGE: 601, 835, 836, 886, 883

 ***ERROR: ELEMENT 602 INSTANCE PART-1-1 NODE NUMBERS MUST BE POSITIVE.
 LINE IMAGE: 602, 872, 334, 870, 333

 ***ERROR: ELEMENT 603 INSTANCE PART-1-1 NODE NUMBERS MUST BE POSITIVE.
 LINE IMAGE: 603, 836, 318, 844, 837

 ***ERROR: ELEMENT 604 INSTANCE PART-1-1 NODE NUMBERS MUST BE POSITIVE.
 LINE IMAGE: 604, 925, 844, 323, 319

 ***ERROR: ELEMENT 605 INSTANCE PART-1-1 NODE NUMBERS MUST BE POSITIVE.
 LINE IMAGE: 605, 925, 271, 926, 46

 ***ERROR: ELEMENT 606 INSTANCE PART-1-1 NODE NUMBERS MUST BE POSITIVE.
 LINE IMAGE: 606, 845, 909, 840, 927

 ***ERROR: ELEMENT 607 INSTANCE PART-1-1 NODE NUMBERS MUST BE POSITIVE.
 LINE IMAGE: 607, 885, 299, 900, 887

 ***ERROR: ELEMENT 608 INSTANCE PART-1-1 NODE NUMBERS MUST BE POSITIVE.
 LINE IMAGE: 608, 317, 841, 890, 836

 ***ERROR: ELEMENT 609 INSTANCE PART-1-1 NODE NUMBERS MUST BE POSITIVE.
 LINE IMAGE: 609, 858, 838, 869, 859

 ***ERROR: ELEMENT 610 INSTANCE PART-1-1 NODE NUMBERS MUST BE POSITIVE.
 LINE IMAGE: 610, 856, 832, 857, 838

 ***ERROR: ELEMENT 611 INSTANCE PART-1-1 NODE NUMBERS MUST BE POSITIVE.
 LINE IMAGE: 611, 916, 258, 36, 37

 ***ERROR: ELEMENT 612 INSTANCE PART-1-1 NODE NUMBERS MUST BE POSITIVE.
 LINE IMAGE: 612, 861, 278, 282, 277

 ***ERROR: ELEMENT 613 INSTANCE PART-1-1 NODE NUMBERS MUST BE POSITIVE.
 LINE IMAGE: 613, 863, 287, 282, 283

 ***ERROR: ELEMENT 614 INSTANCE PART-1-1 NODE NUMBERS MUST BE POSITIVE.
 LINE IMAGE: 614, 914, 41, 42, 252

 ***ERROR: ELEMENT 615 INSTANCE PART-1-1 NODE NUMBERS MUST BE POSITIVE.
 LINE IMAGE: 615, 914, 42, 41, 278

 ***ERROR: ELEMENT 616 INSTANCE PART-1-1 NODE NUMBERS MUST BE POSITIVE.
 LINE IMAGE: 616, 889, 904, 300, 296

 ***ERROR: ELEMENT 617 INSTANCE PART-1-1 NODE NUMBERS MUST BE POSITIVE.
 LINE IMAGE: 617, 825, 286, 824, 285

 ***ERROR: ELEMENT 618 INSTANCE PART-1-1 NODE NUMBERS MUST BE POSITIVE.
 LINE IMAGE: 618, 825, 857, 286, 863

 ***ERROR: ELEMENT 619 INSTANCE PART-1-1 NODE NUMBERS MUST BE POSITIVE.
 LINE IMAGE: 619, 861, 867, 277, 281

 ***ERROR: ELEMENT 620 INSTANCE PART-1-1 NODE NUMBERS MUST BE POSITIVE.
 LINE IMAGE: 620, 895, 280, 62, 63

 ***ERROR: ELEMENT 621 INSTANCE PART-1-1 NODE NUMBERS MUST BE POSITIVE.
 LINE IMAGE: 621, 860, 862, 914, 861

 ***ERROR: ELEMENT 622 INSTANCE PART-1-1 NODE NUMBERS MUST BE POSITIVE.
 LINE IMAGE: 622, 914, 42, 278, 277

 ***ERROR: ELEMENT 623 INSTANCE PART-1-1 NODE NUMBERS MUST BE POSITIVE.
 LINE IMAGE: 623, 908, 248, 42, 43

 ***ERROR: ELEMENT 624 INSTANCE PART-1-1 NODE NUMBERS MUST BE POSITIVE.
 LINE IMAGE: 624, 863, 880, 283, 279

 ***ERROR: ELEMENT 625 INSTANCE PART-1-1 NODE NUMBERS MUST BE POSITIVE.
 LINE IMAGE: 625, 896, 908, 244, 248

 ***ERROR: ELEMENT 626 INSTANCE PART-1-1 NODE NUMBERS MUST BE POSITIVE.
 LINE IMAGE: 626, 826, 895, 867, 889

 ***ERROR: ELEMENT 627 INSTANCE PART-1-1 NODE NUMBERS MUST BE POSITIVE.
 LINE IMAGE: 627, 820, 857, 870, 824

 ***ERROR: ELEMENT 628 INSTANCE PART-1-1 NODE NUMBERS MUST BE POSITIVE.
 LINE IMAGE: 628, 827, 245, 28, 29

 ***ERROR: ELEMENT 629 INSTANCE PART-1-1 NODE NUMBERS MUST BE POSITIVE.
 LINE IMAGE: 629, 884, 245, 827, 29

 ***ERROR: ELEMENT 630 INSTANCE PART-1-1 NODE NUMBERS MUST BE POSITIVE.
 LINE IMAGE: 630, 826, 877, 896, 827

 ***ERROR: ELEMENT 631 INSTANCE PART-1-1 NODE NUMBERS MUST BE POSITIVE.
 LINE IMAGE: 631, 827, 245, 244, 28

 ***ERROR: ELEMENT 632 INSTANCE PART-1-1 NODE NUMBERS MUST BE POSITIVE.
 LINE IMAGE: 632, 868, 337, 332, 333

 ***ERROR: ELEMENT 633 INSTANCE PART-1-1 NODE NUMBERS MUST BE POSITIVE.
 LINE IMAGE: 633, 881, 886, 922, 888

 ***ERROR: ELEMENT 634 INSTANCE PART-1-1 NODE NUMBERS MUST BE POSITIVE.
 LINE IMAGE: 634, 922, 308, 886, 309

 ***ERROR: ELEMENT 635 INSTANCE PART-1-1 NODE NUMBERS MUST BE POSITIVE.
 LINE IMAGE: 635, 922, 247, 33, 251

 ***ERROR: ELEMENT 636 INSTANCE PART-1-1 NODE NUMBERS MUST BE POSITIVE.
 LINE IMAGE: 636, 922, 309, 33, 32

 ***ERROR: ELEMENT 637 INSTANCE PART-1-1 NODE NUMBERS MUST BE POSITIVE.
 LINE IMAGE: 637, 921, 922, 32, 308

 ***ERROR: ELEMENT 638 INSTANCE PART-1-1 NODE NUMBERS MUST BE POSITIVE.
 LINE IMAGE: 638, 835, 851, 897, 852

 ***ERROR: ELEMENT 639 INSTANCE PART-1-1 NODE NUMBERS MUST BE POSITIVE.
 LINE IMAGE: 639, 926, 923, 837, 315

 ***ERROR: ELEMENT 640 INSTANCE PART-1-1 NODE NUMBERS MUST BE POSITIVE.
 LINE IMAGE: 640, 834, 841, 832, 872

 ***ERROR: ELEMENT 641 INSTANCE PART-1-1 NODE NUMBERS MUST BE POSITIVE.
 LINE IMAGE: 641, 885, 883, 886, 890

 ***ERROR: ELEMENT 642 INSTANCE PART-1-1 NODE NUMBERS MUST BE POSITIVE.
 LINE IMAGE: 642, 888, 846, 882, 881

 ***ERROR: ELEMENT 643 INSTANCE PART-1-1 NODE NUMBERS MUST BE POSITIVE.
 LINE IMAGE: 643, 887, 886, 308, 312

 ***ERROR: ELEMENT 644 INSTANCE PART-1-1 NODE NUMBERS MUST BE POSITIVE.
 LINE IMAGE: 644, 922, 888, 886, 308

 ***ERROR: ELEMENT 645 INSTANCE PART-1-1 NODE NUMBERS MUST BE POSITIVE.
 LINE IMAGE: 645, 832, 870, 838, 872

 ***ERROR: ELEMENT 646 INSTANCE PART-1-1 NODE NUMBERS MUST BE POSITIVE.
 LINE IMAGE: 646, 843, 901, 913, 321

 ***ERROR: ELEMENT 647 INSTANCE PART-1-1 NODE NUMBERS MUST BE POSITIVE.
 LINE IMAGE: 647, 330, 866, 872, 334

 ***ERROR: ELEMENT 648 INSTANCE PART-1-1 NODE NUMBERS MUST BE POSITIVE.
 LINE IMAGE: 648, 864, 301, 305, 306

 ***ERROR: ELEMENT 649 INSTANCE PART-1-1 NODE NUMBERS MUST BE POSITIVE.
 LINE IMAGE: 649, 831, 866, 864, 873

 ***ERROR: ELEMENT 650 INSTANCE PART-1-1 NODE NUMBERS MUST BE POSITIVE.
 LINE IMAGE: 650, 893, 326, 331, 330

 ***ERROR: ELEMENT 651 INSTANCE PART-1-1 NODE NUMBERS MUST BE POSITIVE.
 LINE IMAGE: 651, 840, 859, 269, 869

 ***ERROR: ELEMENT 652 INSTANCE PART-1-1 NODE NUMBERS MUST BE POSITIVE.
 LINE IMAGE: 652, 839, 925, 275, 271

 ***ERROR: ELEMENT 653 INSTANCE PART-1-1 NODE NUMBERS MUST BE POSITIVE.
 LINE IMAGE: 653, 861, 277, 867, 908

 ***ERROR: ELEMENT 654 INSTANCE PART-1-1 NODE NUMBERS MUST BE POSITIVE.
 LINE IMAGE: 654, 868, 910, 332, 906

 ***ERROR: ELEMENT 655 INSTANCE PART-1-1 NODE NUMBERS MUST BE POSITIVE.
 LINE IMAGE: 655, 906, 50, 909, 332

 ***ERROR: ELEMENT 656 INSTANCE PART-1-1 NODE NUMBERS MUST BE POSITIVE.
 LINE IMAGE: 656, 909, 273, 49, 50

 ***ERROR: ELEMENT 657 INSTANCE PART-1-1 NODE NUMBERS MUST BE POSITIVE.
 LINE IMAGE: 657, 895, 63, 296, 292

 ***ERROR: ELEMENT 658 INSTANCE PART-1-1 NODE NUMBERS MUST BE POSITIVE.
 LINE IMAGE: 658, 927, 328, 909, 49

 ***ERROR: ELEMENT 659 INSTANCE PART-1-1 NODE NUMBERS MUST BE POSITIVE.
 LINE IMAGE: 659, 820, 857, 832, 870

 ***ERROR: ELEMENT 660 INSTANCE PART-1-1 NODE NUMBERS MUST BE POSITIVE.
 LINE IMAGE: 660, 894, 901, 321, 320

 ***ERROR: ELEMENT 661 INSTANCE PART-1-1 NODE NUMBERS MUST BE POSITIVE.
 LINE IMAGE: 661, 889, 301, 296, 300

 ***ERROR: ELEMENT 662 INSTANCE PART-1-1 NODE NUMBERS MUST BE POSITIVE.
 LINE IMAGE: 662, 918, 338, 58, 337

 ***ERROR: ELEMENT 663 INSTANCE PART-1-1 NODE NUMBERS MUST BE POSITIVE.
 LINE IMAGE: 663, 918, 57, 337, 58

 ***ERROR: ELEMENT 664 INSTANCE PART-1-1 NODE NUMBERS MUST BE POSITIVE.
 LINE IMAGE: 664, 857, 871, 824, 286

 ***ERROR: ELEMENT 665 INSTANCE PART-1-1 NODE NUMBERS MUST BE POSITIVE.
 LINE IMAGE: 665, 822, 284, 280, 285

 ***ERROR: ELEMENT 666 INSTANCE PART-1-1 NODE NUMBERS MUST BE POSITIVE.
 LINE IMAGE: 666, 870, 868, 337, 918

 ***ERROR: ELEMENT 667 INSTANCE PART-1-1 NODE NUMBERS MUST BE POSITIVE.
 LINE IMAGE: 667, 862, 253, 248, 249

 ***ERROR: ELEMENT 668 INSTANCE PART-1-1 NODE NUMBERS MUST BE POSITIVE.
 LINE IMAGE: 668, 919, 337, 918, 57

 ***ERROR: ELEMENT 669 INSTANCE PART-1-1 NODE NUMBERS MUST BE POSITIVE.
 LINE IMAGE: 669, 857, 869, 871, 858

 ***ERROR: ELEMENT 670 INSTANCE PART-1-1 NODE NUMBERS MUST BE POSITIVE.
 LINE IMAGE: 670, 926, 45, 315, 46

 ***ERROR: ELEMENT 671 INSTANCE PART-1-1 NODE NUMBERS MUST BE POSITIVE.
 LINE IMAGE: 671, 874, 918, 289, 824

 ***ERROR: ELEMENT 672 INSTANCE PART-1-1 NODE NUMBERS MUST BE POSITIVE.
 LINE IMAGE: 672, 838, 868, 910, 870

 ***ERROR: ELEMENT 673 INSTANCE PART-1-1 NODE NUMBERS MUST BE POSITIVE.
 LINE IMAGE: 673, 849, 825, 857, 830

 ***ERROR: ELEMENT 674 INSTANCE PART-1-1 NODE NUMBERS MUST BE POSITIVE.
 LINE IMAGE: 674, 912, 322, 73, 72

 ***ERROR: ELEMENT 675 INSTANCE PART-1-1 NODE NUMBERS MUST BE POSITIVE.
 LINE IMAGE: 675, 833, 864, 302, 301

 ***ERROR: ELEMENT 676 INSTANCE PART-1-1 NODE NUMBERS MUST BE POSITIVE.
 LINE IMAGE: 676, 910, 332, 906, 909

 ***ERROR: ELEMENT 677 INSTANCE PART-1-1 NODE NUMBERS MUST BE POSITIVE.
 LINE IMAGE: 677, 847, 249, 250, 254

 ***ERROR: ELEMENT 678 INSTANCE PART-1-1 NODE NUMBERS MUST BE POSITIVE.
 LINE IMAGE: 678, 871, 919, 918, 290

 ***ERROR: ELEMENT 679 INSTANCE PART-1-1 NODE NUMBERS MUST BE POSITIVE.
 LINE IMAGE: 679, 875, 870, 334, 338

 ***ERROR: ELEMENT 680 INSTANCE PART-1-1 NODE NUMBERS MUST BE POSITIVE.
 LINE IMAGE: 680, 871, 290, 824, 286

 ***ERROR: ELEMENT 681 INSTANCE PART-1-1 NODE NUMBERS MUST BE POSITIVE.
 LINE IMAGE: 681, 868, 332, 910, 333

 ***ERROR: ELEMENT 682 INSTANCE PART-1-1 NODE NUMBERS MUST BE POSITIVE.
 LINE IMAGE: 682, 868, 333, 870, 337

 ***ERROR: ELEMENT 683 INSTANCE PART-1-1 NODE NUMBERS MUST BE POSITIVE.
 LINE IMAGE: 683, 881, 254, 250, 255

 ***ERROR: ELEMENT 684 INSTANCE PART-1-1 NODE NUMBERS MUST BE POSITIVE.
 LINE IMAGE: 684, 851, 916, 258, 259

 ***ERROR: ELEMENT 685 INSTANCE PART-1-1 NODE NUMBERS MUST BE POSITIVE.
 LINE IMAGE: 685, 880, 260, 879, 264

 ***ERROR: ELEMENT 686 INSTANCE PART-1-1 NODE NUMBERS MUST BE POSITIVE.
 LINE IMAGE: 686, 821, 304, 305, 300

 ***ERROR: ELEMENT 687 INSTANCE PART-1-1 NODE NUMBERS MUST BE POSITIVE.
 LINE IMAGE: 687, 864, 873, 865, 305

 ***ERROR: ELEMENT 688 INSTANCE PART-1-1 NODE NUMBERS MUST BE POSITIVE.
 LINE IMAGE: 688, 826, 293, 292, 297

 ***ERROR: ELEMENT 689 INSTANCE PART-1-1 NODE NUMBERS MUST BE POSITIVE.
[...]

 ***ERROR: ELEMENT 8001 INSTANCE PART-1-1 NODE NUMBERS MUST BE POSITIVE.
 LINE IMAGE: 8001, 1657, 796, 210, 209

 ***ERROR: ELEMENT 8002 INSTANCE PART-1-1 NODE NUMBERS MUST BE POSITIVE.
 LINE IMAGE: 8002, 1618, 1646, 819, 1653

 ***ERROR: ELEMENT 8003 INSTANCE PART-1-1 NODE NUMBERS MUST BE POSITIVE.
 LINE IMAGE: 8003, 1583, 1585, 626, 622

 ***ERROR: ELEMENT 8004 INSTANCE PART-1-1 NODE NUMBERS MUST BE POSITIVE.
 LINE IMAGE: 8004, 1626, 798, 793, 794

 ***ERROR: ELEMENT 8005 INSTANCE PART-1-1 NODE NUMBERS MUST BE POSITIVE.
 LINE IMAGE: 8005, 1578, 1577, 778, 1664

 ***ERROR: ELEMENT 8006 INSTANCE PART-1-1 NODE NUMBERS MUST BE POSITIVE.
 LINE IMAGE: 8006, 1616, 1627, 1650, 808

 ***ERROR: ELEMENT 8007 INSTANCE PART-1-1 NODE NUMBERS MUST BE POSITIVE.
 LINE IMAGE: 8007, 1636, 1666, 676, 680

 ***ERROR: ELEMENT 8008 INSTANCE PART-1-1 NODE NUMBERS MUST BE POSITIVE.
 LINE IMAGE: 8008, 1600, 742, 747, 743

 ***ERROR: ELEMENT 8009 INSTANCE PART-1-1 NODE NUMBERS MUST BE POSITIVE.
 LINE IMAGE: 8009, 1634, 810, 806, 811

 ***ERROR: ELEMENT 8010 INSTANCE PART-1-1 NODE NUMBERS MUST BE POSITIVE.
 LINE IMAGE: 8010, 1621, 687, 148, 691

 ***ERROR: ELEMENT 8011 INSTANCE PART-1-1 NODE NUMBERS MUST BE POSITIVE.
 LINE IMAGE: 8011, 1626, 796, 792, 797

 ***ERROR: ELEMENT 8012 INSTANCE PART-1-1 NODE NUMBERS MUST BE POSITIVE.
 LINE IMAGE: 8012, 1671, 113, 1637, 742

 ***ERROR: ELEMENT 8013 INSTANCE PART-1-1 NODE NUMBERS MUST BE POSITIVE.
 LINE IMAGE: 8013, 1631, 1629, 1630, 1657

 ***ERROR: ELEMENT 8014 INSTANCE PART-1-1 NODE NUMBERS MUST BE POSITIVE.
 LINE IMAGE: 8014, 1608, 812, 817, 816

 ***ERROR: ELEMENT 8015 INSTANCE PART-1-1 NODE NUMBERS MUST BE POSITIVE.
 LINE IMAGE: 8015, 1670, 785, 784, 1678

 ***ERROR: ELEMENT 8016 INSTANCE PART-1-1 NODE NUMBERS MUST BE POSITIVE.
 LINE IMAGE: 8016, 1673, 626, 1669, 189

 ***ERROR: ELEMENT 8017 INSTANCE PART-1-1 NODE NUMBERS MUST BE POSITIVE.
 LINE IMAGE: 8017, 1581, 1670, 785, 1652

 ***ERROR: ELEMENT 8018 INSTANCE PART-1-1 NODE NUMBERS MUST BE POSITIVE.
 LINE IMAGE: 8018, 1681, 780, 174, 173

 ***ERROR: ELEMENT 8019 INSTANCE PART-1-1 NODE NUMBERS MUST BE POSITIVE.
 LINE IMAGE: 8019, 1579, 1681, 1641, 776

 ***ERROR: ELEMENT 8020 INSTANCE PART-1-1 NODE NUMBERS MUST BE POSITIVE.
 LINE IMAGE: 8020, 1670, 784, 238, 239

 ***ERROR: ELEMENT 8021 INSTANCE PART-1-1 NODE NUMBERS MUST BE POSITIVE.
 LINE IMAGE: 8021, 1586, 794, 789, 790

 ***ERROR: ELEMENT 8022 INSTANCE PART-1-1 NODE NUMBERS MUST BE POSITIVE.
 LINE IMAGE: 8022, 1673, 1622, 190, 789

 ***ERROR: ELEMENT 8023 INSTANCE PART-1-1 NODE NUMBERS MUST BE POSITIVE.
 LINE IMAGE: 8023, 1587, 794, 795, 799

 ***ERROR: ELEMENT 8024 INSTANCE PART-1-1 NODE NUMBERS MUST BE POSITIVE.
 LINE IMAGE: 8024, 1621, 624, 1651, 148

 ***ERROR: ELEMENT 8025 INSTANCE PART-1-1 NODE NUMBERS MUST BE POSITIVE.
 LINE IMAGE: 8025, 1586, 794, 793, 789

 ***ERROR: ELEMENT 8026 INSTANCE PART-1-1 NODE NUMBERS MUST BE POSITIVE.
 LINE IMAGE: 8026, 1583, 1673, 1622, 625

 ***ERROR: ELEMENT 8027 INSTANCE PART-1-1 NODE NUMBERS MUST BE POSITIVE.
 LINE IMAGE: 8027, 786, 1607, 1609, 782

 ***ERROR: ELEMENT 8028 INSTANCE PART-1-1 NODE NUMBERS MUST BE POSITIVE.
 LINE IMAGE: 8028, 1659, 616, 1625, 620

 ***ERROR: ELEMENT 8029 INSTANCE PART-1-1 NODE NUMBERS MUST BE POSITIVE.
 LINE IMAGE: 8029, 1633, 209, 208, 792

 ***ERROR: ELEMENT 8030 INSTANCE PART-1-1 NODE NUMBERS MUST BE POSITIVE.
 LINE IMAGE: 8030, 1675, 803, 27, 240

 ***ERROR: ELEMENT 8031 INSTANCE PART-1-1 NODE NUMBERS MUST BE POSITIVE.
 LINE IMAGE: 8031, 1644, 744, 749, 745

 ***ERROR: ELEMENT 8032 INSTANCE PART-1-1 NODE NUMBERS MUST BE POSITIVE.
 LINE IMAGE: 8032, 1597, 750, 745, 749

 ***ERROR: ELEMENT 8033 INSTANCE PART-1-1 NODE NUMBERS MUST BE POSITIVE.
 LINE IMAGE: 8033, 1670, 785, 238, 784

 ***ERROR: ELEMENT 8034 INSTANCE PART-1-1 NODE NUMBERS MUST BE POSITIVE.
 LINE IMAGE: 8034, 1668, 791, 188, 239

 ***ERROR: ELEMENT 8035 INSTANCE PART-1-1 NODE NUMBERS MUST BE POSITIVE.
 LINE IMAGE: 8035, 1678, 785, 784, 780

 ***ERROR: ELEMENT 8036 INSTANCE PART-1-1 NODE NUMBERS MUST BE POSITIVE.
 LINE IMAGE: 8036, 1674, 787, 783, 235

 ***ERROR: ELEMENT 8037 INSTANCE PART-1-1 NODE NUMBERS MUST BE POSITIVE.
 LINE IMAGE: 8037, 1652, 238, 785, 237

 ***ERROR: ELEMENT 8038 INSTANCE PART-1-1 NODE NUMBERS MUST BE POSITIVE.
 LINE IMAGE: 8038, 1667, 240, 241, 802

 ***ERROR: ELEMENT 8039 INSTANCE PART-1-1 NODE NUMBERS MUST BE POSITIVE.
 LINE IMAGE: 8039, 1573, 1611, 1609, 1608

 ***ERROR: ELEMENT 8040 INSTANCE PART-1-1 NODE NUMBERS MUST BE POSITIVE.
 LINE IMAGE: 8040, 1604, 1574, 1603, 1613

 ***ERROR: ELEMENT 8041 INSTANCE PART-1-1 NODE NUMBERS MUST BE POSITIVE.
 LINE IMAGE: 8041, 1631, 801, 800, 796

 ***ERROR: ELEMENT 8042 INSTANCE PART-1-1 NODE NUMBERS MUST BE POSITIVE.
 LINE IMAGE: 8042, 1657, 690, 209, 689

 ***ERROR: ELEMENT 8043 INSTANCE PART-1-1 NODE NUMBERS MUST BE POSITIVE.
 LINE IMAGE: 8043, 1640, 1677, 1641, 618

 ***ERROR: ELEMENT 8044 INSTANCE PART-1-1 NODE NUMBERS MUST BE POSITIVE.
 LINE IMAGE: 8044, 1654, 805, 1616, 804

 ***ERROR: ELEMENT 8045 INSTANCE PART-1-1 NODE NUMBERS MUST BE POSITIVE.
 LINE IMAGE: 8045, 1678, 780, 784, 174

 ***ERROR: ELEMENT 8046 INSTANCE PART-1-1 NODE NUMBERS MUST BE POSITIVE.
 LINE IMAGE: 8046, 1650, 808, 233, 232

 ***ERROR: ELEMENT 8047 INSTANCE PART-1-1 NODE NUMBERS MUST BE POSITIVE.
 LINE IMAGE: 8047, 1609, 803, 799, 236

 ***ERROR: ELEMENT 8048 INSTANCE PART-1-1 NODE NUMBERS MUST BE POSITIVE.
 LINE IMAGE: 8048, 1674, 816, 235, 234

 ***ERROR: ELEMENT 8049 INSTANCE PART-1-1 NODE NUMBERS MUST BE POSITIVE.
 LINE IMAGE: 8049, 1652, 237, 785, 786

 ***ERROR: ELEMENT 8050 INSTANCE PART-1-1 NODE NUMBERS MUST BE POSITIVE.
 LINE IMAGE: 8050, 1650, 808, 232, 804

 ***ERROR: ELEMENT 8051 INSTANCE PART-1-1 NODE NUMBERS MUST BE POSITIVE.
 LINE IMAGE: 8051, 1655, 753, 749, 748

 ***ERROR: ELEMENT 8052 INSTANCE PART-1-1 NODE NUMBERS MUST BE POSITIVE.
 LINE IMAGE: 8052, 1641, 622, 618, 623

 ***ERROR: ELEMENT 8053 INSTANCE PART-1-1 NODE NUMBERS MUST BE POSITIVE.
 LINE IMAGE: 8053, 1607, 786, 785, 781

 ***ERROR: ELEMENT 8054 INSTANCE PART-1-1 NODE NUMBERS MUST BE POSITIVE.
 LINE IMAGE: 8054, 1607, 786, 781, 782

 ***ERROR: ELEMENT 8055 INSTANCE PART-1-1 NODE NUMBERS MUST BE POSITIVE.
 LINE IMAGE: 8055, 1673, 189, 790, 190

 ***ERROR: ELEMENT 8056 INSTANCE PART-1-1 NODE NUMBERS MUST BE POSITIVE.
 LINE IMAGE: 8056, 1600, 1662, 1672, 743

 ***ERROR: ELEMENT 8057 INSTANCE PART-1-1 NODE NUMBERS MUST BE POSITIVE.
 LINE IMAGE: 8057, 1668, 175, 784, 239

 ***ERROR: ELEMENT 8058 INSTANCE PART-1-1 NODE NUMBERS MUST BE POSITIVE.
 LINE IMAGE: 8058, 1654, 1616, 1644, 1655

 ***ERROR: ELEMENT 8059 INSTANCE PART-1-1 NODE NUMBERS MUST BE POSITIVE.
 LINE IMAGE: 8059, 1575, 1574, 1604, 1613

 ***ERROR: ELEMENT 8060 INSTANCE PART-1-1 NODE NUMBERS MUST BE POSITIVE.
 LINE IMAGE: 8060, 1592, 1598, 1600, 1593

 ***ERROR: ELEMENT 8061 INSTANCE PART-1-1 NODE NUMBERS MUST BE POSITIVE.
 LINE IMAGE: 8061, 1577, 1664, 1615, 778

 ***ERROR: ELEMENT 8062 INSTANCE PART-1-1 NODE NUMBERS MUST BE POSITIVE.
 LINE IMAGE: 8062, 1611, 1587, 799, 798

 ***ERROR: ELEMENT 8063 INSTANCE PART-1-1 NODE NUMBERS MUST BE POSITIVE.
 LINE IMAGE: 8063, 1662, 613, 612, 79

 ***ERROR: ELEMENT 8064 INSTANCE PART-1-1 NODE NUMBERS MUST BE POSITIVE.
 LINE IMAGE: 8064, 1618, 1665, 1632, 815

 ***ERROR: ELEMENT 8065 INSTANCE PART-1-1 NODE NUMBERS MUST BE POSITIVE.
 LINE IMAGE: 8065, 1670, 795, 791, 238

 ***ERROR: ELEMENT 8066 INSTANCE PART-1-1 NODE NUMBERS MUST BE POSITIVE.
 LINE IMAGE: 8066, 1592, 1599, 1596, 1580

 ***ERROR: ELEMENT 8067 INSTANCE PART-1-1 NODE NUMBERS MUST BE POSITIVE.
 LINE IMAGE: 8067, 777, 1663, 772, 1580

 ***ERROR: ELEMENT 8068 INSTANCE PART-1-1 NODE NUMBERS MUST BE POSITIVE.
 LINE IMAGE: 8068, 1663, 773, 772, 223

 ***ERROR: ELEMENT 8069 INSTANCE PART-1-1 NODE NUMBERS MUST BE POSITIVE.
 LINE IMAGE: 8069, 1661, 211, 210, 800

 ***ERROR: ELEMENT 8070 INSTANCE PART-1-1 NODE NUMBERS MUST BE POSITIVE.
 LINE IMAGE: 8070, 1614, 1631, 1646, 1618

 ***ERROR: ELEMENT 8071 INSTANCE PART-1-1 NODE NUMBERS MUST BE POSITIVE.
 LINE IMAGE: 8071, 1658, 682, 1593, 683

 ***ERROR: ELEMENT 8072 INSTANCE PART-1-1 NODE NUMBERS MUST BE POSITIVE.
 LINE IMAGE: 8072, 1678, 623, 175, 627

 ***ERROR: ELEMENT 8073 INSTANCE PART-1-1 NODE NUMBERS MUST BE POSITIVE.
 LINE IMAGE: 8073, 1649, 752, 1654, 228

 ***ERROR: ELEMENT 8074 INSTANCE PART-1-1 NODE NUMBERS MUST BE POSITIVE.
 LINE IMAGE: 8074, 1654, 1616, 1656, 1644

 ***ERROR: ELEMENT 8075 INSTANCE PART-1-1 NODE NUMBERS MUST BE POSITIVE.
 LINE IMAGE: 8075, 1649, 1680, 1655, 752

 ***ERROR: ELEMENT 8076 INSTANCE PART-1-1 NODE NUMBERS MUST BE POSITIVE.
 LINE IMAGE: 8076, 1635, 810, 815, 814

 ***ERROR: ELEMENT 8077 INSTANCE PART-1-1 NODE NUMBERS MUST BE POSITIVE.
 LINE IMAGE: 8077, 1628, 681, 685, 680

 ***ERROR: ELEMENT 8078 INSTANCE PART-1-1 NODE NUMBERS MUST BE POSITIVE.
 LINE IMAGE: 8078, 1587, 1573, 1581, 1576

 ***ERROR: ELEMENT 8079 INSTANCE PART-1-1 NODE NUMBERS MUST BE POSITIVE.
 LINE IMAGE: 8079, 1575, 814, 1618, 1610

 ***ERROR: ELEMENT 8080 INSTANCE PART-1-1 NODE NUMBERS MUST BE POSITIVE.
 LINE IMAGE: 8080, 1663, 222, 773, 223

 ***ERROR: ELEMENT 8081 INSTANCE PART-1-1 NODE NUMBERS MUST BE POSITIVE.
 LINE IMAGE: 8081, 772, 1580, 776, 777

 ***ERROR: ELEMENT 8082 INSTANCE PART-1-1 NODE NUMBERS MUST BE POSITIVE.
 LINE IMAGE: 8082, 1640, 618, 617, 613

 ***ERROR: ELEMENT 8083 INSTANCE PART-1-1 NODE NUMBERS MUST BE POSITIVE.
 LINE IMAGE: 8083, 1663, 772, 773, 777

 ***ERROR: ELEMENT 8084 INSTANCE PART-1-1 NODE NUMBERS MUST BE POSITIVE.
 LINE IMAGE: 8084, 1639, 172, 776, 173

 ***ERROR: ELEMENT 8085 INSTANCE PART-1-1 NODE NUMBERS MUST BE POSITIVE.
 LINE IMAGE: 8085, 1612, 751, 77, 747

 ***ERROR: ELEMENT 8086 INSTANCE PART-1-1 NODE NUMBERS MUST BE POSITIVE.
 LINE IMAGE: 8086, 1631, 801, 796, 797

 ***ERROR: ELEMENT 8087 INSTANCE PART-1-1 NODE NUMBERS MUST BE POSITIVE.
 LINE IMAGE: 8087, 1572, 1605, 1577, 1580

 ***ERROR: ELEMENT 8088 INSTANCE PART-1-1 NODE NUMBERS MUST BE POSITIVE.
 LINE IMAGE: 8088, 1645, 806, 1619, 230

 ***ERROR: ELEMENT 8089 INSTANCE PART-1-1 NODE NUMBERS MUST BE POSITIVE.
 LINE IMAGE: 8089, 1638, 222, 221, 774

 ***ERROR: ELEMENT 8090 INSTANCE PART-1-1 NODE NUMBERS MUST BE POSITIVE.
 LINE IMAGE: 8090, 780, 1581, 1678, 785

 ***ERROR: ELEMENT 8091 INSTANCE PART-1-1 NODE NUMBERS MUST BE POSITIVE.
 LINE IMAGE: 8091, 1681, 619, 174, 623

 ***ERROR: ELEMENT 8092 INSTANCE PART-1-1 NODE NUMBERS MUST BE POSITIVE.
 LINE IMAGE: 8092, 1588, 790, 1669, 791

 ***ERROR: ELEMENT 8093 INSTANCE PART-1-1 NODE NUMBERS MUST BE POSITIVE.
 LINE IMAGE: 8093, 1664, 778, 773, 774

 ***ERROR: ELEMENT 8094 INSTANCE PART-1-1 NODE NUMBERS MUST BE POSITIVE.
 LINE IMAGE: 8094, 1676, 751, 755, 76

 ***ERROR: ELEMENT 8095 INSTANCE PART-1-1 NODE NUMBERS MUST BE POSITIVE.
 LINE IMAGE: 8095, 1667, 240, 1675, 816

 ***ERROR: ELEMENT 8096 INSTANCE PART-1-1 NODE NUMBERS MUST BE POSITIVE.
 LINE IMAGE: 8096, 1668, 21, 627, 175

 ***ERROR: ELEMENT 8097 INSTANCE PART-1-1 NODE NUMBERS MUST BE POSITIVE.
 LINE IMAGE: 8097, 1668, 188, 627, 21

 ***ERROR: ELEMENT 8098 INSTANCE PART-1-1 NODE NUMBERS MUST BE POSITIVE.
 LINE IMAGE: 8098, 1669, 627, 188, 626

 ***ERROR: ELEMENT 8099 INSTANCE PART-1-1 NODE NUMBERS MUST BE POSITIVE.
 LINE IMAGE: 8099, 1680, 753, 752, 221

 ***ERROR: ELEMENT 8100 INSTANCE PART-1-1 NODE NUMBERS MUST BE POSITIVE.
 LINE IMAGE: 8100, 1598, 745, 746, 741

 ***ERROR: ELEMENT 8101 INSTANCE PART-1-1 NODE NUMBERS MUST BE POSITIVE.
 LINE IMAGE: 8101, 1673, 190, 625, 189

 ***ERROR: ELEMENT 8102 INSTANCE PART-1-1 NODE NUMBERS MUST BE POSITIVE.
 LINE IMAGE: 8102, 782, 1609, 787, 783

 ***ERROR: ELEMENT 8103 INSTANCE PART-1-1 NODE NUMBERS MUST BE POSITIVE.
 LINE IMAGE: 8103, 1620, 625, 620, 621

 ***ERROR: ELEMENT 8104 INSTANCE PART-1-1 NODE NUMBERS MUST BE POSITIVE.
 LINE IMAGE: 8104, 1620, 624, 620, 625

 ***ERROR: ELEMENT 8105 INSTANCE PART-1-1 NODE NUMBERS MUST BE POSITIVE.
 LINE IMAGE: 8105, 1678, 623, 174, 175

 ***ERROR: ELEMENT 8106 INSTANCE PART-1-1 NODE NUMBERS MUST BE POSITIVE.
 LINE IMAGE: 8106, 1583, 622, 626, 621

 ***ERROR: ELEMENT 8107 INSTANCE PART-1-1 NODE NUMBERS MUST BE POSITIVE.
 LINE IMAGE: 8107, 1616, 808, 804, 809

 ***ERROR: ELEMENT 8108 INSTANCE PART-1-1 NODE NUMBERS MUST BE POSITIVE.
 LINE IMAGE: 8108, 1611, 798, 799, 803

 ***ERROR: ELEMENT 8109 INSTANCE PART-1-1 NODE NUMBERS MUST BE POSITIVE.
 LINE IMAGE: 8109, 1673, 1586, 790, 1669

 ***ERROR: ELEMENT 8110 INSTANCE PART-1-1 NODE NUMBERS MUST BE POSITIVE.
 LINE IMAGE: 8110, 1645, 744, 740, 231

 ***ERROR: ELEMENT 8111 INSTANCE PART-1-1 NODE NUMBERS MUST BE POSITIVE.
 LINE IMAGE: 8111, 1659, 687, 1624, 683

 ***ERROR: ELEMENT 8112 INSTANCE PART-1-1 NODE NUMBERS MUST BE POSITIVE.
 LINE IMAGE: 8112, 797, 1631, 1614, 1626

 ***ERROR: ELEMENT 8113 INSTANCE PART-1-1 NODE NUMBERS MUST BE POSITIVE.
 LINE IMAGE: 8113, 1659, 149, 687, 683

 ***ERROR: ELEMENT 8114 INSTANCE PART-1-1 NODE NUMBERS MUST BE POSITIVE.
 LINE IMAGE: 8114, 1681, 780, 173, 776

 ***ERROR: ELEMENT 8115 INSTANCE PART-1-1 NODE NUMBERS MUST BE POSITIVE.
 LINE IMAGE: 8115, 1677, 614, 619, 618

 ***ERROR: ELEMENT 8116 INSTANCE PART-1-1 NODE NUMBERS MUST BE POSITIVE.
 LINE IMAGE: 8116, 1583, 621, 626, 625

 ***ERROR: ELEMENT 8117 INSTANCE PART-1-1 NODE NUMBERS MUST BE POSITIVE.
 LINE IMAGE: 8117, 1581, 781, 785, 780

 ***ERROR: ELEMENT 8118 INSTANCE PART-1-1 NODE NUMBERS MUST BE POSITIVE.
 LINE IMAGE: 8118, 1678, 175, 1668, 627

 ***ERROR: ELEMENT 8119 INSTANCE PART-1-1 NODE NUMBERS MUST BE POSITIVE.
 LINE IMAGE: 8119, 1607, 1609, 799, 1652

 ***ERROR: ELEMENT 8120 INSTANCE PART-1-1 NODE NUMBERS MUST BE POSITIVE.
 LINE IMAGE: 8120, 1676, 1596, 755, 751

 ***ERROR: ELEMENT 8121 INSTANCE PART-1-1 NODE NUMBERS MUST BE POSITIVE.
 LINE IMAGE: 8121, 1640, 613, 1612, 614

 ***ERROR: ELEMENT 8122 INSTANCE PART-1-1 NODE NUMBERS MUST BE POSITIVE.
 LINE IMAGE: 8122, 1578, 781, 777, 782

 ***ERROR: ELEMENT 8123 INSTANCE PART-1-1 NODE NUMBERS MUST BE POSITIVE.
 LINE IMAGE: 8123, 1622, 789, 788, 191

 ***ERROR: ELEMENT 8124 INSTANCE PART-1-1 NODE NUMBERS MUST BE POSITIVE.
 LINE IMAGE: 8124, 1579, 781, 780, 776

 ***ERROR: ELEMENT 8125 INSTANCE PART-1-1 NODE NUMBERS MUST BE POSITIVE.
 LINE IMAGE: 8125, 1639, 223, 9, 755

 ***ERROR: ELEMENT 8126 INSTANCE PART-1-1 NODE NUMBERS MUST BE POSITIVE.
 LINE IMAGE: 8126, 1639, 76, 172, 615

 ***ERROR: ELEMENT 8127 INSTANCE PART-1-1 NODE NUMBERS MUST BE POSITIVE.
 LINE IMAGE: 8127, 1642, 1645, 1634, 1656

 ***ERROR: ELEMENT 8128 INSTANCE PART-1-1 NODE NUMBERS MUST BE POSITIVE.
 LINE IMAGE: 8128, 1603, 1616, 1656, 1574

 ***ERROR: ELEMENT 8129 INSTANCE PART-1-1 NODE NUMBERS MUST BE POSITIVE.
 LINE IMAGE: 8129, 1662, 613, 79, 78

 ***ERROR: ELEMENT 8130 INSTANCE PART-1-1 NODE NUMBERS MUST BE POSITIVE.
 LINE IMAGE: 8130, 1615, 1638, 774, 1664

 ***ERROR: ELEMENT 8131 INSTANCE PART-1-1 NODE NUMBERS MUST BE POSITIVE.
 LINE IMAGE: 8131, 1658, 1659, 1624, 683

 ***ERROR: ELEMENT 8132 INSTANCE PART-1-1 NODE NUMBERS MUST BE POSITIVE.
 LINE IMAGE: 8132, 683, 1660, 616, 679

 ***ERROR: ELEMENT 8133 INSTANCE PART-1-1 NODE NUMBERS MUST BE POSITIVE.
 LINE IMAGE: 8133, 1660, 616, 151, 612

 ***ERROR: ELEMENT 8134 INSTANCE PART-1-1 NODE NUMBERS MUST BE POSITIVE.
 LINE IMAGE: 8134, 1672, 612, 2, 79

 ***ERROR: ELEMENT 8135 INSTANCE PART-1-1 NODE NUMBERS MUST BE POSITIVE.
 LINE IMAGE: 8135, 1594, 1640, 1589, 1625

 ***ERROR: ELEMENT 8136 INSTANCE PART-1-1 NODE NUMBERS MUST BE POSITIVE.
 LINE IMAGE: 8136, 616, 679, 150, 683

 ***ERROR: ELEMENT 8137 INSTANCE PART-1-1 NODE NUMBERS MUST BE POSITIVE.
 LINE IMAGE: 8137, 1644, 744, 748, 749

 ***ERROR: ELEMENT 8138 INSTANCE PART-1-1 NODE NUMBERS MUST BE POSITIVE.
 LINE IMAGE: 8138, 1637, 678, 114, 113

 ***ERROR: ELEMENT 8139 INSTANCE PART-1-1 NODE NUMBERS MUST BE POSITIVE.
 LINE IMAGE: 8139, 1615, 1638, 1680, 774

 ***ERROR: ELEMENT 8140 INSTANCE PART-1-1 NODE NUMBERS MUST BE POSITIVE.
 LINE IMAGE: 8140, 1607, 1573, 1587, 799

 ***ERROR: ELEMENT 8141 INSTANCE PART-1-1 NODE NUMBERS MUST BE POSITIVE.
 LINE IMAGE: 8141, 1627, 779, 1650, 233

 ***ERROR: ELEMENT 8142 INSTANCE PART-1-1 NODE NUMBERS MUST BE POSITIVE.
 LINE IMAGE: 8142, 1681, 776, 173, 619
  *Elset, elset=ASSEMBLY_PART-1-1_DISPX
  *Elset, elset=ASSEMBLY_PART-1-1_FIXEDX
  *Elset, elset=ASSEMBLY_PART-1-1_FIXEDY
  *Elset, elset=ASSEMBLY_PART-1-1_FIXEDZ
  *Elset, elset=ASSEMBLY_PART-1-1_MAT1_GRN1
  *Elset, elset=ASSEMBLY_PART-1-1_MAT1_GRN2
  *Elset, elset=ASSEMBLY_PART-1-1_MAT1_GRN3
  *Elset, elset=ASSEMBLY_PART-1-1_MAT1_GRN4
  *Elset, elset=ASSEMBLY_PART-1-1_MAT1_GRN5
  *Elset, elset=ASSEMBLY_PART-1-1_MAT1_GRN6
  *Elset, elset=ASSEMBLY_PART-1-1_MAT1_GRN7
  *Elset, elset=ASSEMBLY_PART-1-1_MAT1_GRN8
  *Elset, elset=ASSEMBLY_PART-1-1_SET-1
  *Elset, elset=ASSEMBLY_SET-102

 ***ERROR: Node/Element numbers defined for 8142 elements must be positive 
           integers. Check element definitions and the .dat file for details.
  *coupledtemperature-displacement, creep=NONE, deltmx=10000000000000
  *material, name=MAT1_GRN1
  *density
  *depvar
  *usermaterial, constants=2, type=MECHANICAL
  *usermaterial, constants=8, type=THERMAL
  *material, name=MAT1_GRN2
  *density
  *depvar
  *usermaterial, constants=2, type=MECHANICAL
  *usermaterial, constants=8, type=THERMAL
  *material, name=MAT1_GRN3

 ***WARNING: DATA LINES AFTER *MATERIAL ARE IGNORED
  *density
  *depvar
  *usermaterial, constants=2, type=MECHANICAL
  *usermaterial, constants=8, type=THERMAL
  *material, name=MAT1_GRN4
  *density
  *depvar
  *usermaterial, constants=2, type=MECHANICAL
  *usermaterial, constants=8, type=THERMAL
  *material, name=MAT1_GRN5
  *density
  *depvar
  *usermaterial, constants=2, type=MECHANICAL
  *usermaterial, constants=8, type=THERMAL
  *material, name=MAT1_GRN6
  *density
  *depvar
  *usermaterial, constants=2, type=MECHANICAL
  *usermaterial, constants=8, type=THERMAL
  *material, name=MAT1_GRN7
  *density
  *depvar
  *usermaterial, constants=2, type=MECHANICAL
  *usermaterial, constants=8, type=THERMAL
  *material, name=MAT1_GRN8
  *density
  *depvar
  *usermaterial, constants=2, type=MECHANICAL
  *usermaterial, constants=8, type=THERMAL
  *initialconditions, type=TEMPERATURE
  *solidsection, elset=ASSEMBLY_PART-1-1_MAT1_GRN4, material=MAT1_GRN4
  *solidsection, elset=ASSEMBLY_PART-1-1_MAT1_GRN3, material=MAT1_GRN3
  *solidsection, elset=ASSEMBLY_PART-1-1_MAT1_GRN1, material=MAT1_GRN1
  *solidsection, elset=ASSEMBLY_PART-1-1_MAT1_GRN8, material=MAT1_GRN8
  *solidsection, elset=ASSEMBLY_PART-1-1_MAT1_GRN7, material=MAT1_GRN7
  *solidsection, elset=ASSEMBLY_PART-1-1_MAT1_GRN5, material=MAT1_GRN5
  *solidsection, elset=ASSEMBLY_PART-1-1_MAT1_GRN2, material=MAT1_GRN2
  *solidsection, elset=ASSEMBLY_PART-1-1_MAT1_GRN6, material=MAT1_GRN6
  *solidsection, elset=ASSEMBLY_PART-1-1_MAT1_GRN4, material=MAT1_GRN4
  *solidsection, elset=ASSEMBLY_PART-1-1_MAT1_GRN3, material=MAT1_GRN3
  *solidsection, elset=ASSEMBLY_PART-1-1_MAT1_GRN1, material=MAT1_GRN1
  *solidsection, elset=ASSEMBLY_PART-1-1_MAT1_GRN8, material=MAT1_GRN8
  *solidsection, elset=ASSEMBLY_PART-1-1_MAT1_GRN7, material=MAT1_GRN7
  *solidsection, elset=ASSEMBLY_PART-1-1_MAT1_GRN5, material=MAT1_GRN5
  *solidsection, elset=ASSEMBLY_PART-1-1_MAT1_GRN2, material=MAT1_GRN2
  *solidsection, elset=ASSEMBLY_PART-1-1_MAT1_GRN6, material=MAT1_GRN6
  *initialconditions, type=TEMPERATURE
  *boundary
  *boundary
  *boundary
  *boundary
  *boundary, amplitude=AMP-1
  *boundary, amplitude=AMP-1
  *boundary
  *boundary
  *boundary
  *boundary
  *boundary, amplitude=AMP-1
  *boundary, amplitude=AMP-1

 ***ERROR: THIS MODEL HAS EITHER INCORRECT OR NO ELEMENT DEFINITIONS.





          THE PROGRAM HAS DISCOVERED  8145 FATAL ERRORS

               ** EXECUTION IS TERMINATED **



                              END OF USER INPUT PROCESSING



     JOB TIME SUMMARY
       USER TIME (SEC)      =     0.13    
       SYSTEM TIME (SEC)    =     7.00E-02
       TOTAL CPU TIME (SEC) =     0.20    
       WALLCLOCK TIME (SEC) =            0
