 Abaqus/Standard 2024                  DATE 19-Feb-2025 TIME 13:56:13
 SUMMARY OF JOB INFORMATION:
 STEP  INC ATT SEVERE EQUIL TOTAL  TOTAL      STEP       INC OF       DOF    IF
               DISCON ITERS ITERS  TIME/    TIME/LPF    TIME/LPF    MONITOR RIKS
               ITERS               FREQ
   1     1   1     0     1     1  1.00e-06   1.00e-06   1.000e-06 
   1     2   1     0     1     1  2.00e-06   2.00e-06   1.000e-06 
   1     3   1     0     1     1  3.50e-06   3.50e-06   1.500e-06 
   1     4   1     0     1     1  5.75e-06   5.75e-06   2.250e-06 
   1     5   1     0     1     1  9.12e-06   9.12e-06   3.375e-06 
   1     6   1     0     1     1  1.42e-05   1.42e-05   5.062e-06 
   1     7   1     0     1     1  2.18e-05   2.18e-05   7.594e-06 
   1     8   1     0     1     1  3.32e-05   3.32e-05   1.139e-05 
   1     9   1     0     1     1  5.03e-05   5.03e-05   1.709e-05 
   1    10   1     0     1     1  7.59e-05   7.59e-05   2.563e-05 
   1    11   1     0     1     1  0.000114   0.000114   3.844e-05 
   1    12   1     0     1     1  0.000172   0.000172   5.767e-05 
   1    13   1     0     1     1  0.000258   0.000258   8.650e-05 
   1    14   1     0     1     1  0.000388   0.000388   0.0001297 
   1    15   1     0     1     1  0.000583   0.000583   0.0001946 
   1    16   1     0     1     1  0.000875   0.000875   0.0002919 
   1    17   1     0     1     1  0.00131    0.00131    0.0004379 
   1    18   1     0     1     1  0.00197    0.00197    0.0006568 
   1    19   1     0     1     1  0.00295    0.00295    0.0009853 
   1    20   1     0     1     1  0.00443    0.00443    0.001478  
   1    21   1     0     1     1  0.00665    0.00665    0.002217  
   1    22   1     0     1     1  0.00997    0.00997    0.003325  
   1    23   1     0     1     1  0.0150     0.0150     0.004988  
   1    24   1     0     1     1  0.0200     0.0200     0.005000  
   1    25   1     0     1     1  0.0250     0.0250     0.005000  
   1    26   1     0     1     1  0.0300     0.0300     0.005000  
   1    27   1     0     1     1  0.0350     0.0350     0.005000  
   1    28   1     0     1     1  0.0400     0.0400     0.005000  
   1    29   1     0     1     1  0.0450     0.0450     0.005000  
   1    30   1     0     1     1  0.0500     0.0500     0.005000  
   1    31   1     0     1     1  0.0550     0.0550     0.005000  
   1    32   1     0     1     1  0.0600     0.0600     0.005000  
   1    33   1     0     1     1  0.0650     0.0650     0.005000  
   1    34   1     0     1     1  0.0700     0.0700     0.005000  
   1    35   1     0     1     1  0.0750     0.0750     0.005000  
   1    36   1     0     1     1  0.0800     0.0800     0.005000  
   1    37   1     0     1     1  0.0850     0.0850     0.005000  
   1    38   1     0     1     1  0.0900     0.0900     0.005000  
   1    39   1     0     1     1  0.0950     0.0950     0.005000  
   1    40   1     0     1     1  0.100      0.100      0.005000  
   1    41   1     0     1     1  0.105      0.105      0.005000  
   1    42   1     0     1     1  0.110      0.110      0.005000  
   1    43   1     0     1     1  0.115      0.115      0.005000  
   1    44   1     0     1     1  0.120      0.120      0.005000  
   1    45   1     0     1     1  0.125      0.125      0.005000  
   1    46   1     0     1     1  0.130      0.130      0.005000  
   1    47   1     0     1     1  0.135      0.135      0.005000  
   1    48   1     0     1     1  0.140      0.140      0.005000  
   1    49   1     0     1     1  0.145      0.145      0.005000  
   1    50   1     0     1     1  0.150      0.150      0.005000  
   1    51   1     0     1     1  0.155      0.155      0.005000  
   1    52   1     0     1     1  0.160      0.160      0.005000  
   1    53   1     0     1     1  0.165      0.165      0.005000  
   1    54   1     0     1     1  0.170      0.170      0.005000  
   1    55   1     0     1     1  0.175      0.175      0.005000  
   1    56   1     0     1     1  0.180      0.180      0.005000  
   1    57   1     0     1     1  0.185      0.185      0.005000  
   1    58   1     0     1     1  0.190      0.190      0.005000  
   1    59   1     0     1     1  0.195      0.195      0.005000  
   1    60   1     0     1     1  0.200      0.200      0.005000  
   1    61   1     0     1     1  0.205      0.205      0.005000  
   1    62   1     0     1     1  0.210      0.210      0.005000  
   1    63   1     0     1     1  0.215      0.215      0.005000  
   1    64   1     0     1     1  0.220      0.220      0.005000  
   1    65   1     0     1     1  0.225      0.225      0.005000  
   1    66   1     0     1     1  0.230      0.230      0.005000  
   1    67   1     0     1     1  0.235      0.235      0.005000  
   1    68   1     0     1     1  0.240      0.240      0.005000  
   1    69   1     0     1     1  0.245      0.245      0.005000  
   1    70   1     0     1     1  0.250      0.250      0.005000  
   1    71   1     0     1     1  0.255      0.255      0.005000  
   1    72   1     0     1     1  0.260      0.260      0.005000  
   1    73   1     0     1     1  0.265      0.265      0.005000  
   1    74   1     0     1     1  0.270      0.270      0.005000  
   1    75   1     0     1     1  0.275      0.275      0.005000  
   1    76   1     0     1     1  0.280      0.280      0.005000  
   1    77   1     0     1     1  0.285      0.285      0.005000  
   1    78   1     0     1     1  0.290      0.290      0.005000  
   1    79   1     0     1     1  0.295      0.295      0.005000  
   1    80   1     0     1     1  0.300      0.300      0.005000  
   1    81   1     0     1     1  0.305      0.305      0.005000  
   1    82   1     0     1     1  0.310      0.310      0.005000  
   1    83   1     0     1     1  0.315      0.315      0.005000  
   1    84   1     0     1     1  0.320      0.320      0.005000  
   1    85   1     0     1     1  0.325      0.325      0.005000  
   1    86   1     0     1     1  0.330      0.330      0.005000  
   1    87   1     0     1     1  0.335      0.335      0.005000  
   1    88   1     0     1     1  0.340      0.340      0.005000  
   1    89   1     0     1     1  0.345      0.345      0.005000  
   1    90   1     0     1     1  0.350      0.350      0.005000  
   1    91   1     0     1     1  0.355      0.355      0.005000  
   1    92   1     0     1     1  0.360      0.360      0.005000  
   1    93   1     0     1     1  0.365      0.365      0.005000  
   1    94   1     0     1     1  0.370      0.370      0.005000  
   1    95   1     0     1     1  0.375      0.375      0.005000  
   1    96   1     0     1     1  0.380      0.380      0.005000  
   1    97   1     0     1     1  0.385      0.385      0.005000  
   1    98   1     0     1     1  0.390      0.390      0.005000  
   1    99   1     0     1     1  0.395      0.395      0.005000  
   1   100   1     0     1     1  0.400      0.400      0.005000  
   1   101   1     0     1     1  0.405      0.405      0.005000  
   1   102   1     0     1     1  0.410      0.410      0.005000  
   1   103   1     0     1     1  0.415      0.415      0.005000  
   1   104   1     0     1     1  0.420      0.420      0.005000  
   1   105   1     0     1     1  0.425      0.425      0.005000  
   1   106   1     0     1     1  0.430      0.430      0.005000  
   1   107   1     0     1     1  0.435      0.435      0.005000  
   1   108   1     0     1     1  0.440      0.440      0.005000  
   1   109   1     0     1     1  0.445      0.445      0.005000  
   1   110   1     0     1     1  0.450      0.450      0.005000  
   1   111   1     0     1     1  0.455      0.455      0.005000  
   1   112   1     0     1     1  0.460      0.460      0.005000  
   1   113   1     0     1     1  0.465      0.465      0.005000  
   1   114   1     0     1     1  0.470      0.470      0.005000  
   1   115   1     0     1     1  0.475      0.475      0.005000  
   1   116   1     0     1     1  0.480      0.480      0.005000  
   1   117   1     0     1     1  0.485      0.485      0.005000  
   1   118   1     0     1     1  0.490      0.490      0.005000  
   1   119   1     0     1     1  0.495      0.495      0.005000  
   1   120   1     0     1     1  0.500      0.500      0.005000  
   1   121   1     0     1     1  0.505      0.505      0.005000  
   1   122   1     0     1     1  0.510      0.510      0.005000  
   1   123   1     0     1     1  0.515      0.515      0.005000  
   1   124   1     0     1     1  0.520      0.520      0.005000  
   1   125   1     0     1     1  0.525      0.525      0.005000  
   1   126   1     0     1     1  0.530      0.530      0.005000  
   1   127   1     0     1     1  0.535      0.535      0.005000  
   1   128   1     0     1     1  0.540      0.540      0.005000  
   1   129   1     0     1     1  0.545      0.545      0.005000  
   1   130   1     0     1     1  0.550      0.550      0.005000  
   1   131   1     0     1     1  0.555      0.555      0.005000  
   1   132   1     0     1     1  0.560      0.560      0.005000  
   1   133   1     0     1     1  0.565      0.565      0.005000  
   1   134   1     0     1     1  0.570      0.570      0.005000  
   1   135   1     0     1     1  0.575      0.575      0.005000  
   1   136   1     0     1     1  0.580      0.580      0.005000  
   1   137   1     0     1     1  0.585      0.585      0.005000  
   1   138   1     0     1     1  0.590      0.590      0.005000  
   1   139   1     0     1     1  0.595      0.595      0.005000  
   1   140   1     0     1     1  0.600      0.600      0.005000  
   1   141   1     0     1     1  0.605      0.605      0.005000  
   1   142   1     0     1     1  0.610      0.610      0.005000  
   1   143   1     0     1     1  0.615      0.615      0.005000  
   1   144   1     0     1     1  0.620      0.620      0.005000  
   1   145   1     0     1     1  0.625      0.625      0.005000  
   1   146   1     0     1     1  0.630      0.630      0.005000  
   1   147   1     0     1     1  0.635      0.635      0.005000  
   1   148   1     0     1     1  0.640      0.640      0.005000  
   1   149   1     0     1     1  0.645      0.645      0.005000  
   1   150   1     0     1     1  0.650      0.650      0.005000  
   1   151   1     0     1     1  0.655      0.655      0.005000  
   1   152   1     0     1     1  0.660      0.660      0.005000  
   1   153   1     0     1     1  0.665      0.665      0.005000  
   1   154   1     0     1     1  0.670      0.670      0.005000  
   1   155   1     0     1     1  0.675      0.675      0.005000  
   1   156   1     0     1     1  0.680      0.680      0.005000  
   1   157   1     0     1     1  0.685      0.685      0.005000  
   1   158   1     0     1     1  0.690      0.690      0.005000  
   1   159   1     0     1     1  0.695      0.695      0.005000  
   1   160   1     0     1     1  0.700      0.700      0.005000  
   1   161   1     0     1     1  0.705      0.705      0.005000  
   1   162   1     0     1     1  0.710      0.710      0.005000  
   1   163   1     0     1     1  0.715      0.715      0.005000  
   1   164   1     0     1     1  0.720      0.720      0.005000  
   1   165   1     0     1     1  0.725      0.725      0.005000  
   1   166   1     0     1     1  0.730      0.730      0.005000  
   1   167   1     0     1     1  0.735      0.735      0.005000  
   1   168   1     0     1     1  0.740      0.740      0.005000  
   1   169   1     0     1     1  0.745      0.745      0.005000  
   1   170   1     0     1     1  0.750      0.750      0.005000  
   1   171   1     0     1     1  0.755      0.755      0.005000  
   1   172   1     0     1     1  0.760      0.760      0.005000  
   1   173   1     0     1     1  0.765      0.765      0.005000  
   1   174   1     0     1     1  0.770      0.770      0.005000  
   1   175   1     0     1     1  0.775      0.775      0.005000  
   1   176   1     0     1     1  0.780      0.780      0.005000  
   1   177   1     0     1     1  0.785      0.785      0.005000  
   1   178   1     0     1     1  0.790      0.790      0.005000  
   1   179   1     0     1     1  0.795      0.795      0.005000  
   1   180   1     0     1     1  0.800      0.800      0.005000  
   1   181   1     0     1     1  0.805      0.805      0.005000  
   1   182   1     0     1     1  0.810      0.810      0.005000  
   1   183   1     0     1     1  0.815      0.815      0.005000  
   1   184   1     0     1     1  0.820      0.820      0.005000  
   1   185   1     0     1     1  0.825      0.825      0.005000  
   1   186   1     0     1     1  0.830      0.830      0.005000  
   1   187   1     0     1     1  0.835      0.835      0.005000  
   1   188   1     0     1     1  0.840      0.840      0.005000  
   1   189   1     0     1     1  0.845      0.845      0.005000  
   1   190   1     0     1     1  0.850      0.850      0.005000  
   1   191   1     0     1     1  0.855      0.855      0.005000  
   1   192   1     0     1     1  0.860      0.860      0.005000  
   1   193   1     0     1     1  0.865      0.865      0.005000  
   1   194   1     0     1     1  0.870      0.870      0.005000  
   1   195   1     0     1     1  0.875      0.875      0.005000  
   1   196   1     0     1     1  0.880      0.880      0.005000  
   1   197   1     0     1     1  0.885      0.885      0.005000  
   1   198   1     0     1     1  0.890      0.890      0.005000  
   1   199   1     0     1     1  0.895      0.895      0.005000  
   1   200   1     0     1     1  0.900      0.900      0.005000  
   1   201   1     0     1     1  0.905      0.905      0.005000  
   1   202   1     0     1     1  0.910      0.910      0.005000  
   1   203   1     0     1     1  0.915      0.915      0.005000  
   1   204   1     0     1     1  0.920      0.920      0.005000  
   1   205   1     0     1     1  0.925      0.925      0.005000  
   1   206   1     0     1     1  0.930      0.930      0.005000  
   1   207   1     0     1     1  0.935      0.935      0.005000  
   1   208   1     0     1     1  0.940      0.940      0.005000  
   1   209   1     0     1     1  0.945      0.945      0.005000  
   1   210   1     0     1     1  0.950      0.950      0.005000  
   1   211   1     0     1     1  0.955      0.955      0.005000  
   1   212   1     0     1     1  0.960      0.960      0.005000  
   1   213   1     0     1     1  0.965      0.965      0.005000  
   1   214   1     0     1     1  0.970      0.970      0.005000  
   1   215   1     0     1     1  0.975      0.975      0.005000  
   1   216   1     0     1     1  0.980      0.980      0.005000  
   1   217   1     0     1     1  0.985      0.985      0.005000  
   1   218   1     0     1     1  0.990      0.990      0.005000  
   1   219   1     0     1     1  0.995      0.995      0.005000  
   1   220   1     0     1     1  1.00       1.00       0.005000  
   1   221   1     0     1     1  1.00       1.00       3.734e-05 
                          
 THE ANALYSIS HAS COMPLETED SUCCESSFULLY
