1

   Abaqus 2024                                  Date 20-Dec-2024   Time 13:53:54
   For use by UNIVERSITY OF WYOMING under license from Dassault Systemes or its subsidiary.

                                                                                 
                                                                                 
 STEP    1     INCREMENT     1     STEP TIME    0.00    


                        S T E P       1     C O U P L E D - T E M P E R A T U R E - D I S P L A C E M E N T   A N A L Y S I S


                                                                                          

     AUTOMATIC TIME CONTROL WITH -
          A SUGGESTED INITIAL TIME INCREMENT OF                1.000E-04
          AND A TOTAL TIME PERIOD OF                            1.00    
          THE MINIMUM TIME INCREMENT ALLOWED IS                1.000E-25
          THE MAXIMUM TIME INCREMENT ALLOWED IS                1.000E-02

          CREEP AND SWELLING EFFECTS ARE OMITTED IN THIS STEP

     THE SIZE OF THE TIME INCREMENT IS CONTROLLED BY -
          THE TEMPERATURE CHANGE PER INCREMENT NOT EXCEEDING           1.000E+13
          THE RATE DEPENDENCY WILL BE CONSIDERED IN THIS STEP

          CREEP AND SWELLING EFFECTS WILL BE IGNORED.

 CONVERGENCE TOLERANCE PARAMETERS FOR FORCE    
     CRITERION FOR RESIDUAL FORCE     FOR A NONLINEAR PROBLEM          5.000E-03
     CRITERION FOR DISP.    CORRECTION IN A NONLINEAR PROBLEM          1.000E-02
     INITIAL VALUE OF TIME AVERAGE FORCE                               1.000E-02
     AVERAGE FORCE     IS TIME AVERAGE FORCE    
     ALTERNATE CRIT. FOR RESIDUAL FORCE     FOR A NONLINEAR PROBLEM    2.000E-02
     CRITERION FOR ZERO FORCE     RELATIVE TO TIME AVRG. FORCE         1.000E-05
     CRITERION FOR RESIDUAL FORCE     WHEN THERE IS ZERO FLUX          1.000E-05
     CRITERION FOR DISP.    CORRECTION WHEN THERE IS ZERO FLUX         1.000E-03
     CRITERION FOR RESIDUAL FORCE     FOR A LINEAR INCREMENT           1.000E-08
     FIELD CONVERSION RATIO                                             1.00    
     CRITERION FOR ZERO FORCE     REL. TO TIME AVRG. MAX. FORCE        1.000E-05
     CRITERION FOR ZERO DISP.    RELATIVE TO CHARACTERISTIC LENGTH     1.000E-08

 CONVERGENCE TOLERANCE PARAMETERS FOR HEAT FLUX
     CRITERION FOR RESIDUAL HEAT FLUX FOR A NONLINEAR PROBLEM          5.000E-03
     CRITERION FOR TEMP.    CORRECTION IN A NONLINEAR PROBLEM          1.000E-02
     INITIAL VALUE OF TIME AVERAGE HEAT FLUX                           1.000E-02
     AVERAGE HEAT FLUX IS TIME AVERAGE HEAT FLUX
     ALTERNATE CRIT. FOR RESIDUAL HEAT FLUX FOR A NONLINEAR PROBLEM    2.000E-02
     CRITERION FOR ZERO HEAT FLUX RELATIVE TO TIME AVRG. HEAT FLUX     1.000E-05
     CRITERION FOR RESIDUAL HEAT FLUX WHEN THERE IS ZERO FLUX          1.000E-05
     CRITERION FOR TEMP.    CORRECTION WHEN THERE IS ZERO FLUX         1.000E-03
     CRITERION FOR RESIDUAL HEAT FLUX FOR A LINEAR INCREMENT           1.000E-08
     FIELD CONVERSION RATIO                                             1.00    
     CRITERION FOR ZERO HEAT FLUX REL. TO TIME AVRG. MAX. HEAT FLUX    1.000E-05

     VOLUMETRIC STRAIN COMPATIBILITY TOLERANCE FOR HYBRID SOLIDS       1.000E-05
     AXIAL STRAIN COMPATIBILITY TOLERANCE FOR HYBRID BEAMS             1.000E-05
     TRANS. SHEAR STRAIN COMPATIBILITY TOLERANCE FOR HYBRID BEAMS      1.000E-05
     SOFT CONTACT CONSTRAINT COMPATIBILITY TOLERANCE FOR P>P0          5.000E-03
     SOFT CONTACT CONSTRAINT COMPATIBILITY TOLERANCE FOR P=0.0         0.100    
     CONTACT FORCE ERROR TOLERANCE FOR CONVERT SDI=YES                 1.00    
     DISPLACEMENT COMPATIBILITY TOLERANCE FOR DCOUP ELEMENTS           1.000E-05
     ROTATION COMPATIBILITY TOLERANCE FOR DCOUP ELEMENTS               1.000E-05

 EQUILIBRIUM WILL BE CHECKED FOR SEVERE DISCONTINUITY ITERATIONS

 TIME INCREMENTATION CONTROL PARAMETERS:
     FIRST EQUILIBRIUM ITERATION FOR CONSECUTIVE DIVERGENCE CHECK              4
     EQUILIBRIUM ITERATION AT WHICH LOG. CONVERGENCE RATE CHECK BEGINS         8
     EQUILIBRIUM ITERATION AFTER WHICH ALTERNATE RESIDUAL IS USED              9
     MAXIMUM EQUILIBRIUM ITERATIONS ALLOWED                                   16
     EQUILIBRIUM ITERATION COUNT FOR CUT-BACK IN NEXT INCREMENT               10
     MAXIMUM EQUILIB. ITERS IN TWO INCREMENTS FOR TIME INCREMENT INCREASE      4
     MAXIMUM ITERATIONS FOR SEVERE DISCONTINUITIES                            50
     MAXIMUM ATTEMPTS ALLOWED IN AN INCREMENT                                  5
     MAXIMUM DISCON. ITERS IN TWO INCREMENTS FOR TIME INCREMENT INCREASE      50
     MAXIMUM CONTACT AUGMENTATIONS FOR *SURFACE BEHAVIOR,AUGMENTED LAGRANGE   50
     CONSECUTIVE INCS MEETING TIME INTEG. TOL. FOR TIME INC. INCREASE          3
     CUT-BACK FACTOR AFTER DIVERGENCE                                 0.2500    
     CUT-BACK FACTOR FOR TOO SLOW CONVERGENCE                         0.5000    
     CUT-BACK FACTOR AFTER TOO MANY EQUILIBRIUM ITERATIONS            0.7500    
     CUT-BACK FACTOR AFTER TOO MANY SEVERE DISCONTINUITY ITERATIONS   0.2500    
     CUT-BACK FACTOR AFTER PROBLEMS IN ELEMENT ASSEMBLY               0.2500    
     INCREASE FACTOR AFTER TWO INCREMENTS THAT CONVERGE QUICKLY        1.500    
     MAX. TIME INCREMENT INCREASE FACTOR ALLOWED                       1.500    
     MAX. TIME INCREMENT INCREASE FACTOR ALLOWED (DYNAMICS)            1.250    
     MAX. TIME INCREMENT INCREASE FACTOR ALLOWED (DIFFUSION)           2.000    
     MINIMUM TIME INCREMENT RATIO FOR EXTRAPOLATION TO OCCUR          0.1000    
     CUT-BACK FACTOR WHEN TIME INTEGRATION ACCURACY TOL. EXCEEDED     0.8500    
     MAX. RATIO OF TIME INTEG. MEASURE TO TOL. FOR TIME INC. INCREASE 0.7500    
     INCREASE FACTOR FOR TIME INCREMENT WHEN POSSIBLE                 0.8000    
     MIN. TIME INC. INCREASE FACTOR IN LINEAR TRANSIENT PROBLEMS      0.9500    
     MAX. RATIO OF TIME INCREMENT TO STABILITY LIMIT                   1.000    
     FRACTION OF STABILITY LIMIT FOR NEW TIME INCREMENT               0.9500    
     TIME INCREMENT INCREASE FACTOR BEFORE A TIME POINT                1.000    
     GLOBAL STABILIZATION CONTROL IS NOT USED

          PRINT OF INCREMENT NUMBER, TIME, ETC., EVERY    1  INCREMENTS

     THE MAXIMUM NUMBER OF INCREMENTS IN THIS STEP IS                 1000000

          LARGE DISPLACEMENT THEORY WILL BE USED

          UNSYMMETRIC MATRIX STORAGE AND SOLUTION WILL BE USED

     LINEAR EXTRAPOLATION WILL BE USED

     CHARACTERISTIC ELEMENT LENGTH     0.294    

     DETAILS REGARDING ACTUAL SOLUTION WAVEFRONT REQUESTED

     DETAILED OUTPUT OF DIAGNOSTICS TO DATABASE REQUESTED

     PRINT OF INCREMENT NUMBER, TIME, ETC., TO THE MESSAGE FILE EVERY     1  INCREMENTS

     ELEMENT OPERATIONS WILL BE CARRIED OUT IN PARALLEL USING   4 THREADS ON 1 DOMAIN

     PARALLEL CONTACT TRACKING ENABLED


     COLLECTING MODEL CONSTRAINT INFORMATION FOR OVERCONSTRAINT CHECKS

     COLLECTING STEP CONSTRAINT INFORMATION FOR OVERCONSTRAINT CHECKS


  INCREMENT     1 STARTS. ATTEMPT NUMBER  1, TIME INCREMENT  1.000E-04
 
     INITIAL ELEMENT LOAD BALANCE
            DOMAIN    1     THREAD    NUMBER OF ELEMENTS
                              1            1470
                              2            1560
                              3            1552
                              4            1552
 
	UNSYMMETRIC NEW DIRECT SPARSE SOLVER RUNNING ON
 	1 HOST x 1 MPI RANK PER HOST x 4 THREADS PER RANK
        NUMBER OF EQUATIONS:  43736
        NUMBER OF RHS:        1
        NUMBER OF FLOPS:      2.157e+09
        SOLVER ELAPSED TIME:  60ms

               CONVERGENCE CHECKS FOR EQUILIBRIUM ITERATION     1


 AVERAGE FORCE                      6.149E-04   TIME AVG. FORCE       6.149E-04
 LARGEST SCALED RESIDUAL FORCE      1.733E-09   AT NODE       8562   DOF  2
   INSTANCE: PART-1-1                                                                        
  CORRESPONDING RESIDUAL FORCE      1.733E-09
 LARGEST INCREMENT OF DISP.         4.422E-06   AT NODE      16772   DOF  2
   INSTANCE: PART-1-1                                                                        
 LARGEST CORRECTION TO DISP.        4.422E-06   AT NODE      16772   DOF  2
   INSTANCE: PART-1-1                                                                        
          DISP.    CORRECTION TOO LARGE COMPARED TO DISP.    INCREMENT

 AVERAGE HEAT FLUX                  4.381E+10   TIME AVG. HEAT FLUX   4.381E+10
 LARGEST RESIDUAL HEAT FLUX         4.005E+11   AT NODE      17348   DOF 11
   INSTANCE: PART-1-1                                                                        
 LARGEST INCREMENT OF TEMP.         2.632E+09   AT NODE          1   DOF 11
   INSTANCE: PART-1-1                                                                        
 LARGEST CORRECTION TO TEMP.        2.632E+09   AT NODE          1   DOF 11
   INSTANCE: PART-1-1                                                                        
          HEAT FLUX EQUILIBRIUM NOT ACHIEVED WITHIN TOLERANCE.
 
	UNSYMMETRIC NEW DIRECT SPARSE SOLVER RUNNING ON
 	1 HOST x 1 MPI RANK PER HOST x 4 THREADS PER RANK
        NUMBER OF EQUATIONS:  43736
        NUMBER OF RHS:        1
        NUMBER OF FLOPS:      2.157e+09
        SOLVER ELAPSED TIME:  46ms

               CONVERGENCE CHECKS FOR EQUILIBRIUM ITERATION     2


 AVERAGE FORCE                      6.149E-04   TIME AVG. FORCE       6.149E-04
 LARGEST SCALED RESIDUAL FORCE      5.557E-14   AT NODE      18491   DOF  2
   INSTANCE: PART-1-1                                                                        
  CORRESPONDING RESIDUAL FORCE      5.557E-14
 LARGEST INCREMENT OF DISP.         4.422E-06   AT NODE      16772   DOF  2
   INSTANCE: PART-1-1                                                                        
 LARGEST CORRECTION TO DISP.        3.531E-13   AT NODE        644   DOF  1
   INSTANCE: PART-1-1                                                                        
          THE FORCE     EQUILIBRIUM EQUATIONS HAVE CONVERGED

 AVERAGE HEAT FLUX                  4.380E+10   TIME AVG. HEAT FLUX   4.380E+10
 LARGEST RESIDUAL HEAT FLUX        -4.421E+08   AT NODE      17348   DOF 11
   INSTANCE: PART-1-1                                                                        
 LARGEST INCREMENT OF TEMP.         2.632E+09   AT NODE          1   DOF 11
   INSTANCE: PART-1-1                                                                        
 LARGEST CORRECTION TO TEMP.        5.033E+06   AT NODE      16786   DOF 11
   INSTANCE: PART-1-1                                                                        
          HEAT FLUX EQUILIBRIUM NOT ACHIEVED WITHIN TOLERANCE.
 
	UNSYMMETRIC NEW DIRECT SPARSE SOLVER RUNNING ON
 	1 HOST x 1 MPI RANK PER HOST x 4 THREADS PER RANK
        NUMBER OF EQUATIONS:  43736
        NUMBER OF RHS:        1
        NUMBER OF FLOPS:      2.157e+09
        SOLVER ELAPSED TIME:  43ms

               CONVERGENCE CHECKS FOR EQUILIBRIUM ITERATION     3


 AVERAGE FORCE                      6.149E-04   TIME AVG. FORCE       6.149E-04
 LARGEST SCALED RESIDUAL FORCE     -6.184E-14   AT NODE      18525   DOF  2
   INSTANCE: PART-1-1                                                                        
  CORRESPONDING RESIDUAL FORCE     -6.184E-14
 LARGEST INCREMENT OF DISP.         4.422E-06   AT NODE      16772   DOF  2
   INSTANCE: PART-1-1                                                                        
 LARGEST CORRECTION TO DISP.        8.074E-19   AT NODE        886   DOF  2
   INSTANCE: PART-1-1                                                                        
          THE FORCE     EQUILIBRIUM EQUATIONS HAVE CONVERGED

 AVERAGE HEAT FLUX                  4.380E+10   TIME AVG. HEAT FLUX   4.380E+10
 LARGEST RESIDUAL HEAT FLUX         5.130E+05   AT NODE      17348   DOF 11
   INSTANCE: PART-1-1                                                                        
 LARGEST INCREMENT OF TEMP.         2.632E+09   AT NODE          1   DOF 11
   INSTANCE: PART-1-1                                                                        
 LARGEST CORRECTION TO TEMP.        9.638E+03   AT NODE       2312   DOF 11
   INSTANCE: PART-1-1                                                                        
          THE HEAT FLUX EQUILIBRIUM EQUATIONS HAVE CONVERGED

 MAXIMUM NON-PRESCRIBED INCREMENT IN TEMPERATURE IS   2.267E+09

 ITERATION SUMMARY FOR THE INCREMENT:   3 TOTAL ITERATIONS, OF WHICH
   0 ARE SEVERE DISCONTINUITY ITERATIONS AND  3 ARE EQUILIBRIUM ITERATIONS.

 TIME INCREMENT COMPLETED  1.000E-04,  FRACTION OF STEP COMPLETED  1.000E-04
 STEP TIME COMPLETED       1.000E-04,  TOTAL TIME COMPLETED        1.000E-04


  INCREMENT     2 STARTS. ATTEMPT NUMBER  1, TIME INCREMENT  1.000E-04
 
	UNSYMMETRIC NEW DIRECT SPARSE SOLVER RUNNING ON
 	1 HOST x 1 MPI RANK PER HOST x 4 THREADS PER RANK
        NUMBER OF EQUATIONS:  43736
        NUMBER OF RHS:        1
        NUMBER OF FLOPS:      2.157e+09
        SOLVER ELAPSED TIME:  43ms

               CONVERGENCE CHECKS FOR EQUILIBRIUM ITERATION     1


 AVERAGE FORCE                      1.269E-03   TIME AVG. FORCE       9.418E-04
 LARGEST SCALED RESIDUAL FORCE      5.139E-14   AT NODE      18477   DOF  2
   INSTANCE: PART-1-1                                                                        
  CORRESPONDING RESIDUAL FORCE      5.139E-14
 LARGEST INCREMENT OF DISP.         4.422E-06   AT NODE      16772   DOF  2
   INSTANCE: PART-1-1                                                                        
 LARGEST CORRECTION TO DISP.        1.050E-12   AT NODE       1085   DOF  1
   INSTANCE: PART-1-1                                                                        
          THE FORCE     EQUILIBRIUM RESPONSE WAS LINEAR IN THIS INCREMENT

 AVERAGE HEAT FLUX                  8.060E+11   TIME AVG. HEAT FLUX   4.249E+11
 LARGEST RESIDUAL HEAT FLUX        -4.338E+08   AT NODE      17348   DOF 11
   INSTANCE: PART-1-1                                                                        
 LARGEST INCREMENT OF TEMP.         2.632E+09   AT NODE          1   DOF 11
   INSTANCE: PART-1-1                                                                        
 LARGEST CORRECTION TO TEMP.        5.474E+08   AT NODE         72   DOF 11
   INSTANCE: PART-1-1                                                                        
 ESTIMATE OF TEMP.    CORRECTION   -5.993E+05
 HEAT FLUX EQUILIB. ACCEPTED BASED ON SMALL RESIDUAL AND ESTIMATED CORRECTION

 MAXIMUM NON-PRESCRIBED INCREMENT IN TEMPERATURE IS   2.437E+09

 ITERATION SUMMARY FOR THE INCREMENT:   1 TOTAL ITERATIONS, OF WHICH
   0 ARE SEVERE DISCONTINUITY ITERATIONS AND  1 ARE EQUILIBRIUM ITERATIONS.

 TIME INCREMENT COMPLETED  1.000E-04,  FRACTION OF STEP COMPLETED  2.000E-04
 STEP TIME COMPLETED       2.000E-04,  TOTAL TIME COMPLETED        2.000E-04


  INCREMENT     3 STARTS. ATTEMPT NUMBER  1, TIME INCREMENT  1.000E-04
 
	UNSYMMETRIC NEW DIRECT SPARSE SOLVER RUNNING ON
 	1 HOST x 1 MPI RANK PER HOST x 4 THREADS PER RANK
        NUMBER OF EQUATIONS:  43736
        NUMBER OF RHS:        1
        NUMBER OF FLOPS:      2.157e+09
        SOLVER ELAPSED TIME:  43ms

               CONVERGENCE CHECKS FOR EQUILIBRIUM ITERATION     1


 AVERAGE FORCE                      1.903E-03   TIME AVG. FORCE       1.262E-03
 LARGEST SCALED RESIDUAL FORCE     -6.884E-14   AT NODE      18477   DOF  2
   INSTANCE: PART-1-1                                                                        
  CORRESPONDING RESIDUAL FORCE     -6.884E-14
 LARGEST INCREMENT OF DISP.         4.422E-06   AT NODE      16772   DOF  2
   INSTANCE: PART-1-1                                                                        
 LARGEST CORRECTION TO DISP.        1.050E-12   AT NODE       1085   DOF  1
   INSTANCE: PART-1-1                                                                        
          THE FORCE     EQUILIBRIUM RESPONSE WAS LINEAR IN THIS INCREMENT

 AVERAGE HEAT FLUX                  8.005E+11   TIME AVG. HEAT FLUX   5.501E+11
 LARGEST RESIDUAL HEAT FLUX        -4.229E+08   AT NODE      17348   DOF 11
   INSTANCE: PART-1-1                                                                        
 LARGEST INCREMENT OF TEMP.         2.632E+09   AT NODE          1   DOF 11
   INSTANCE: PART-1-1                                                                        
 LARGEST CORRECTION TO TEMP.        3.077E+08   AT NODE       3504   DOF 11
   INSTANCE: PART-1-1                                                                        
 ESTIMATE OF TEMP.    CORRECTION   -3.341E+05
 HEAT FLUX EQUILIB. ACCEPTED BASED ON SMALL RESIDUAL AND ESTIMATED CORRECTION

 MAXIMUM NON-PRESCRIBED INCREMENT IN TEMPERATURE IS   2.486E+09
          TIME INCREMENT MAY NOW INCREASE TO    2.000E-04

 ITERATION SUMMARY FOR THE INCREMENT:   1 TOTAL ITERATIONS, OF WHICH
   0 ARE SEVERE DISCONTINUITY ITERATIONS AND  1 ARE EQUILIBRIUM ITERATIONS.

 TIME INCREMENT COMPLETED  1.000E-04,  FRACTION OF STEP COMPLETED  3.000E-04
 STEP TIME COMPLETED       3.000E-04,  TOTAL TIME COMPLETED        3.000E-04


  INCREMENT     4 STARTS. ATTEMPT NUMBER  1, TIME INCREMENT  2.000E-04
 
	UNSYMMETRIC NEW DIRECT SPARSE SOLVER RUNNING ON
 	1 HOST x 1 MPI RANK PER HOST x 4 THREADS PER RANK
        NUMBER OF EQUATIONS:  43736
        NUMBER OF RHS:        1
        NUMBER OF FLOPS:      2.157e+09
        SOLVER ELAPSED TIME:  43ms

               CONVERGENCE CHECKS FOR EQUILIBRIUM ITERATION     1


 AVERAGE FORCE                      3.164E-03   TIME AVG. FORCE       1.738E-03
 LARGEST SCALED RESIDUAL FORCE      1.370E-13   AT NODE      18531   DOF  2
   INSTANCE: PART-1-1                                                                        
  CORRESPONDING RESIDUAL FORCE      1.370E-13
 LARGEST INCREMENT OF DISP.         8.845E-06   AT NODE      16772   DOF  2
   INSTANCE: PART-1-1                                                                        
 LARGEST CORRECTION TO DISP.        2.377E-12   AT NODE       1085   DOF  1
   INSTANCE: PART-1-1                                                                        
          THE FORCE     EQUILIBRIUM RESPONSE WAS LINEAR IN THIS INCREMENT

 AVERAGE HEAT FLUX                  7.887E+11   TIME AVG. HEAT FLUX   6.097E+11
 LARGEST RESIDUAL HEAT FLUX        -1.628E+09   AT NODE      17348   DOF 11
   INSTANCE: PART-1-1                                                                        
 LARGEST INCREMENT OF TEMP.         5.265E+09   AT NODE          1   DOF 11
   INSTANCE: PART-1-1                                                                        
 LARGEST CORRECTION TO TEMP.        6.959E+08   AT NODE       3471   DOF 11
   INSTANCE: PART-1-1                                                                        
 ESTIMATE OF TEMP.    CORRECTION   -1.487E+06
 HEAT FLUX EQUILIB. ACCEPTED BASED ON SMALL RESIDUAL AND ESTIMATED CORRECTION

 MAXIMUM NON-PRESCRIBED INCREMENT IN TEMPERATURE IS   5.044E+09
          TIME INCREMENT MAY NOW INCREASE TO    4.000E-04

 ITERATION SUMMARY FOR THE INCREMENT:   1 TOTAL ITERATIONS, OF WHICH
   0 ARE SEVERE DISCONTINUITY ITERATIONS AND  1 ARE EQUILIBRIUM ITERATIONS.

 TIME INCREMENT COMPLETED  2.000E-04,  FRACTION OF STEP COMPLETED  5.000E-04
 STEP TIME COMPLETED       5.000E-04,  TOTAL TIME COMPLETED        5.000E-04


  INCREMENT     5 STARTS. ATTEMPT NUMBER  1, TIME INCREMENT  4.000E-04
 
	UNSYMMETRIC NEW DIRECT SPARSE SOLVER RUNNING ON
 	1 HOST x 1 MPI RANK PER HOST x 4 THREADS PER RANK
        NUMBER OF EQUATIONS:  43736
        NUMBER OF RHS:        1
        NUMBER OF FLOPS:      2.157e+09
        SOLVER ELAPSED TIME:  52ms

               CONVERGENCE CHECKS FOR EQUILIBRIUM ITERATION     1


 AVERAGE FORCE                      5.680E-03   TIME AVG. FORCE       2.526E-03
 LARGEST SCALED RESIDUAL FORCE     -1.068E-12   AT NODE        811   DOF  2
   INSTANCE: PART-1-1                                                                        
  CORRESPONDING RESIDUAL FORCE     -1.068E-12
 LARGEST INCREMENT OF DISP.         1.769E-05   AT NODE      16772   DOF  2
   INSTANCE: PART-1-1                                                                        
 LARGEST CORRECTION TO DISP.        1.065E-11   AT NODE       1085   DOF  1
   INSTANCE: PART-1-1                                                                        
          THE FORCE     EQUILIBRIUM RESPONSE WAS LINEAR IN THIS INCREMENT

 AVERAGE HEAT FLUX                  7.679E+11   TIME AVG. HEAT FLUX   6.414E+11
 LARGEST RESIDUAL HEAT FLUX        -6.032E+09   AT NODE      17348   DOF 11
   INSTANCE: PART-1-1                                                                        
 LARGEST INCREMENT OF TEMP.         1.053E+10   AT NODE          1   DOF 11
   INSTANCE: PART-1-1                                                                        
 LARGEST CORRECTION TO TEMP.        1.562E+09   AT NODE       3438   DOF 11
   INSTANCE: PART-1-1                                                                        
          HEAT FLUX EQUILIBRIUM NOT ACHIEVED WITHIN TOLERANCE.
 
	UNSYMMETRIC NEW DIRECT SPARSE SOLVER RUNNING ON
 	1 HOST x 1 MPI RANK PER HOST x 4 THREADS PER RANK
        NUMBER OF EQUATIONS:  43736
        NUMBER OF RHS:        1
        NUMBER OF FLOPS:      2.157e+09
        SOLVER ELAPSED TIME:  51ms

               CONVERGENCE CHECKS FOR EQUILIBRIUM ITERATION     2


 AVERAGE FORCE                      5.680E-03   TIME AVG. FORCE       2.526E-03
 LARGEST SCALED RESIDUAL FORCE     -1.958E-13   AT NODE      18523   DOF  2
   INSTANCE: PART-1-1                                                                        
  CORRESPONDING RESIDUAL FORCE     -1.958E-13
 LARGEST INCREMENT OF DISP.         1.769E-05   AT NODE      16772   DOF  2
   INSTANCE: PART-1-1                                                                        
 LARGEST CORRECTION TO DISP.        1.330E-16   AT NODE        508   DOF  2
   INSTANCE: PART-1-1                                                                        
          THE FORCE     EQUILIBRIUM EQUATIONS HAVE CONVERGED

 AVERAGE HEAT FLUX                  7.679E+11   TIME AVG. HEAT FLUX   6.414E+11
 LARGEST RESIDUAL HEAT FLUX         2.646E+07   AT NODE      17348   DOF 11
   INSTANCE: PART-1-1                                                                        
 LARGEST INCREMENT OF TEMP.         1.053E+10   AT NODE          1   DOF 11
   INSTANCE: PART-1-1                                                                        
 LARGEST CORRECTION TO TEMP.        2.564E+07   AT NODE       2245   DOF 11
   INSTANCE: PART-1-1                                                                        
          THE HEAT FLUX EQUILIBRIUM EQUATIONS HAVE CONVERGED

 MAXIMUM NON-PRESCRIBED INCREMENT IN TEMPERATURE IS   1.020E+10
          TIME INCREMENT MAY NOW INCREASE TO    6.000E-04

 ITERATION SUMMARY FOR THE INCREMENT:   2 TOTAL ITERATIONS, OF WHICH
   0 ARE SEVERE DISCONTINUITY ITERATIONS AND  2 ARE EQUILIBRIUM ITERATIONS.

 TIME INCREMENT COMPLETED  4.000E-04,  FRACTION OF STEP COMPLETED  9.000E-04
 STEP TIME COMPLETED       9.000E-04,  TOTAL TIME COMPLETED        9.000E-04


  INCREMENT     6 STARTS. ATTEMPT NUMBER  1, TIME INCREMENT  6.000E-04
 
	UNSYMMETRIC NEW DIRECT SPARSE SOLVER RUNNING ON
 	1 HOST x 1 MPI RANK PER HOST x 4 THREADS PER RANK
        NUMBER OF EQUATIONS:  43736
        NUMBER OF RHS:        1
        NUMBER OF FLOPS:      2.157e+09
        SOLVER ELAPSED TIME:  43ms

               CONVERGENCE CHECKS FOR EQUILIBRIUM ITERATION     1


 AVERAGE FORCE                      9.455E-03   TIME AVG. FORCE       3.681E-03
 LARGEST SCALED RESIDUAL FORCE     -3.729E-12   AT NODE        811   DOF  2
   INSTANCE: PART-1-1                                                                        
  CORRESPONDING RESIDUAL FORCE     -3.729E-12
 LARGEST INCREMENT OF DISP.         2.653E-05   AT NODE      16772   DOF  2
   INSTANCE: PART-1-1                                                                        
 LARGEST CORRECTION TO DISP.        2.900E-11   AT NODE       1085   DOF  1
   INSTANCE: PART-1-1                                                                        
          THE FORCE     EQUILIBRIUM RESPONSE WAS LINEAR IN THIS INCREMENT

 AVERAGE HEAT FLUX                  7.340E+11   TIME AVG. HEAT FLUX   6.568E+11
 LARGEST RESIDUAL HEAT FLUX        -1.206E+10   AT NODE      17348   DOF 11
   INSTANCE: PART-1-1                                                                        
 LARGEST INCREMENT OF TEMP.         1.579E+10   AT NODE          1   DOF 11
   INSTANCE: PART-1-1                                                                        
 LARGEST CORRECTION TO TEMP.        2.122E+09   AT NODE       3405   DOF 11
   INSTANCE: PART-1-1                                                                        
          HEAT FLUX EQUILIBRIUM NOT ACHIEVED WITHIN TOLERANCE.
 
	UNSYMMETRIC NEW DIRECT SPARSE SOLVER RUNNING ON
 	1 HOST x 1 MPI RANK PER HOST x 4 THREADS PER RANK
        NUMBER OF EQUATIONS:  43736
        NUMBER OF RHS:        1
        NUMBER OF FLOPS:      2.157e+09
        SOLVER ELAPSED TIME:  42ms

               CONVERGENCE CHECKS FOR EQUILIBRIUM ITERATION     2


 AVERAGE FORCE                      9.455E-03   TIME AVG. FORCE       3.681E-03
 LARGEST SCALED RESIDUAL FORCE     -2.086E-13   AT NODE      18461   DOF  2
   INSTANCE: PART-1-1                                                                        
  CORRESPONDING RESIDUAL FORCE     -2.086E-13
 LARGEST INCREMENT OF DISP.         2.653E-05   AT NODE      16772   DOF  2
   INSTANCE: PART-1-1                                                                        
 LARGEST CORRECTION TO DISP.        4.885E-16   AT NODE        533   DOF  2
   INSTANCE: PART-1-1                                                                        
          THE FORCE     EQUILIBRIUM EQUATIONS HAVE CONVERGED

 AVERAGE HEAT FLUX                  7.340E+11   TIME AVG. HEAT FLUX   6.568E+11
 LARGEST RESIDUAL HEAT FLUX         7.626E+07   AT NODE      17348   DOF 11
   INSTANCE: PART-1-1                                                                        
 LARGEST INCREMENT OF TEMP.         1.579E+10   AT NODE          1   DOF 11
   INSTANCE: PART-1-1                                                                        
 LARGEST CORRECTION TO TEMP.        5.392E+07   AT NODE         74   DOF 11
   INSTANCE: PART-1-1                                                                        
          THE HEAT FLUX EQUILIBRIUM EQUATIONS HAVE CONVERGED

 MAXIMUM NON-PRESCRIBED INCREMENT IN TEMPERATURE IS   1.542E+10
          TIME INCREMENT MAY NOW INCREASE TO    9.000E-04

 ITERATION SUMMARY FOR THE INCREMENT:   2 TOTAL ITERATIONS, OF WHICH
   0 ARE SEVERE DISCONTINUITY ITERATIONS AND  2 ARE EQUILIBRIUM ITERATIONS.

 TIME INCREMENT COMPLETED  6.000E-04,  FRACTION OF STEP COMPLETED  1.500E-03
 STEP TIME COMPLETED       1.500E-03,  TOTAL TIME COMPLETED        1.500E-03


  INCREMENT     7 STARTS. ATTEMPT NUMBER  1, TIME INCREMENT  9.000E-04
 
	UNSYMMETRIC NEW DIRECT SPARSE SOLVER RUNNING ON
 	1 HOST x 1 MPI RANK PER HOST x 4 THREADS PER RANK
        NUMBER OF EQUATIONS:  43736
        NUMBER OF RHS:        1
        NUMBER OF FLOPS:      2.157e+09
        SOLVER ELAPSED TIME:  43ms

               CONVERGENCE CHECKS FOR EQUILIBRIUM ITERATION     1


 AVERAGE FORCE                      1.511E-02   TIME AVG. FORCE       5.314E-03
 LARGEST SCALED RESIDUAL FORCE     -1.269E-11   AT NODE        811   DOF  2
   INSTANCE: PART-1-1                                                                        
  CORRESPONDING RESIDUAL FORCE     -1.269E-11
 LARGEST INCREMENT OF DISP.         3.980E-05   AT NODE      16772   DOF  2
   INSTANCE: PART-1-1                                                                        
 LARGEST CORRECTION TO DISP.        6.363E-11   AT NODE       1085   DOF  1
   INSTANCE: PART-1-1                                                                        
          THE FORCE     EQUILIBRIUM RESPONSE WAS LINEAR IN THIS INCREMENT

 AVERAGE HEAT FLUX                  6.956E+11   TIME AVG. HEAT FLUX   6.623E+11
 LARGEST RESIDUAL HEAT FLUX        -2.293E+10   AT NODE      17348   DOF 11
   INSTANCE: PART-1-1                                                                        
 LARGEST INCREMENT OF TEMP.         2.369E+10   AT NODE          1   DOF 11
   INSTANCE: PART-1-1                                                                        
 LARGEST CORRECTION TO TEMP.        3.067E+09   AT NODE       3383   DOF 11
   INSTANCE: PART-1-1                                                                        
          HEAT FLUX EQUILIBRIUM NOT ACHIEVED WITHIN TOLERANCE.
 
	UNSYMMETRIC NEW DIRECT SPARSE SOLVER RUNNING ON
 	1 HOST x 1 MPI RANK PER HOST x 4 THREADS PER RANK
        NUMBER OF EQUATIONS:  43736
        NUMBER OF RHS:        1
        NUMBER OF FLOPS:      2.157e+09
        SOLVER ELAPSED TIME:  42ms

               CONVERGENCE CHECKS FOR EQUILIBRIUM ITERATION     2


 AVERAGE FORCE                      1.511E-02   TIME AVG. FORCE       5.314E-03
 LARGEST SCALED RESIDUAL FORCE      4.669E-13   AT NODE      18510   DOF  2
   INSTANCE: PART-1-1                                                                        
  CORRESPONDING RESIDUAL FORCE      4.669E-13
 LARGEST INCREMENT OF DISP.         3.980E-05   AT NODE      16772   DOF  2
   INSTANCE: PART-1-1                                                                        
 LARGEST CORRECTION TO DISP.        1.654E-15   AT NODE        533   DOF  2
   INSTANCE: PART-1-1                                                                        
          THE FORCE     EQUILIBRIUM EQUATIONS HAVE CONVERGED

 AVERAGE HEAT FLUX                  6.956E+11   TIME AVG. HEAT FLUX   6.624E+11
 LARGEST RESIDUAL HEAT FLUX         2.057E+08   AT NODE      17348   DOF 11
   INSTANCE: PART-1-1                                                                        
 LARGEST INCREMENT OF TEMP.         2.369E+10   AT NODE          1   DOF 11
   INSTANCE: PART-1-1                                                                        
 LARGEST CORRECTION TO TEMP.        1.178E+08   AT NODE       3524   DOF 11
   INSTANCE: PART-1-1                                                                        
          THE HEAT FLUX EQUILIBRIUM EQUATIONS HAVE CONVERGED

 MAXIMUM NON-PRESCRIBED INCREMENT IN TEMPERATURE IS   2.326E+10
          TIME INCREMENT MAY NOW INCREASE TO    1.350E-03

 ITERATION SUMMARY FOR THE INCREMENT:   2 TOTAL ITERATIONS, OF WHICH
   0 ARE SEVERE DISCONTINUITY ITERATIONS AND  2 ARE EQUILIBRIUM ITERATIONS.

 TIME INCREMENT COMPLETED  9.000E-04,  FRACTION OF STEP COMPLETED  2.400E-03
 STEP TIME COMPLETED       2.400E-03,  TOTAL TIME COMPLETED        2.400E-03


  INCREMENT     8 STARTS. ATTEMPT NUMBER  1, TIME INCREMENT  1.350E-03
 
	UNSYMMETRIC NEW DIRECT SPARSE SOLVER RUNNING ON
 	1 HOST x 1 MPI RANK PER HOST x 4 THREADS PER RANK
        NUMBER OF EQUATIONS:  43736
        NUMBER OF RHS:        1
        NUMBER OF FLOPS:      2.157e+09
        SOLVER ELAPSED TIME:  42ms

               CONVERGENCE CHECKS FOR EQUILIBRIUM ITERATION     1


 AVERAGE FORCE                      2.360E-02   TIME AVG. FORCE       7.599E-03
 LARGEST SCALED RESIDUAL FORCE     -4.302E-11   AT NODE        811   DOF  2
   INSTANCE: PART-1-1                                                                        
  CORRESPONDING RESIDUAL FORCE     -4.302E-11
 LARGEST INCREMENT OF DISP.         5.970E-05   AT NODE      16772   DOF  2
   INSTANCE: PART-1-1                                                                        
 LARGEST CORRECTION TO DISP.        1.432E-10   AT NODE       1085   DOF  1
   INSTANCE: PART-1-1                                                                        
          THE FORCE     EQUILIBRIUM RESPONSE WAS LINEAR IN THIS INCREMENT

 AVERAGE HEAT FLUX                  6.430E+11   TIME AVG. HEAT FLUX   6.599E+11
 LARGEST RESIDUAL HEAT FLUX        -4.093E+10   AT NODE      17348   DOF 11
   INSTANCE: PART-1-1                                                                        
 LARGEST INCREMENT OF TEMP.         3.554E+10   AT NODE          1   DOF 11
   INSTANCE: PART-1-1                                                                        
 LARGEST CORRECTION TO TEMP.        4.612E+09   AT NODE       3361   DOF 11
   INSTANCE: PART-1-1                                                                        
          HEAT FLUX EQUILIBRIUM NOT ACHIEVED WITHIN TOLERANCE.
 
	UNSYMMETRIC NEW DIRECT SPARSE SOLVER RUNNING ON
 	1 HOST x 1 MPI RANK PER HOST x 4 THREADS PER RANK
        NUMBER OF EQUATIONS:  43736
        NUMBER OF RHS:        1
        NUMBER OF FLOPS:      2.157e+09
        SOLVER ELAPSED TIME:  42ms

               CONVERGENCE CHECKS FOR EQUILIBRIUM ITERATION     2


 AVERAGE FORCE                      2.360E-02   TIME AVG. FORCE       7.599E-03
 LARGEST SCALED RESIDUAL FORCE      5.875E-13   AT NODE      18510   DOF  2
   INSTANCE: PART-1-1                                                                        
  CORRESPONDING RESIDUAL FORCE      5.875E-13
 LARGEST INCREMENT OF DISP.         5.970E-05   AT NODE      16772   DOF  2
   INSTANCE: PART-1-1                                                                        
 LARGEST CORRECTION TO DISP.        5.595E-15   AT NODE        222   DOF  2
   INSTANCE: PART-1-1                                                                        
          THE FORCE     EQUILIBRIUM EQUATIONS HAVE CONVERGED

 AVERAGE HEAT FLUX                  6.431E+11   TIME AVG. HEAT FLUX   6.599E+11
 LARGEST RESIDUAL HEAT FLUX         5.122E+08   AT NODE      17348   DOF 11
   INSTANCE: PART-1-1                                                                        
 LARGEST INCREMENT OF TEMP.         3.554E+10   AT NODE          1   DOF 11
   INSTANCE: PART-1-1                                                                        
 LARGEST CORRECTION TO TEMP.        2.628E+08   AT NODE       3491   DOF 11
   INSTANCE: PART-1-1                                                                        
          THE HEAT FLUX EQUILIBRIUM EQUATIONS HAVE CONVERGED

 MAXIMUM NON-PRESCRIBED INCREMENT IN TEMPERATURE IS   3.503E+10
          TIME INCREMENT MAY NOW INCREASE TO    2.025E-03

 ITERATION SUMMARY FOR THE INCREMENT:   2 TOTAL ITERATIONS, OF WHICH
   0 ARE SEVERE DISCONTINUITY ITERATIONS AND  2 ARE EQUILIBRIUM ITERATIONS.

 TIME INCREMENT COMPLETED  1.350E-03,  FRACTION OF STEP COMPLETED  3.750E-03
 STEP TIME COMPLETED       3.750E-03,  TOTAL TIME COMPLETED        3.750E-03


  INCREMENT     9 STARTS. ATTEMPT NUMBER  1, TIME INCREMENT  2.025E-03
 
	UNSYMMETRIC NEW DIRECT SPARSE SOLVER RUNNING ON
 	1 HOST x 1 MPI RANK PER HOST x 4 THREADS PER RANK
        NUMBER OF EQUATIONS:  43736
        NUMBER OF RHS:        1
        NUMBER OF FLOPS:      2.157e+09
        SOLVER ELAPSED TIME:  46ms

               CONVERGENCE CHECKS FOR EQUILIBRIUM ITERATION     1


 AVERAGE FORCE                      3.631E-02   TIME AVG. FORCE       1.079E-02
 LARGEST SCALED RESIDUAL FORCE     -1.456E-10   AT NODE        811   DOF  2
   INSTANCE: PART-1-1                                                                        
  CORRESPONDING RESIDUAL FORCE     -1.456E-10
 LARGEST INCREMENT OF DISP.         8.955E-05   AT NODE      16772   DOF  2
   INSTANCE: PART-1-1                                                                        
 LARGEST CORRECTION TO DISP.        3.221E-10   AT NODE       1085   DOF  1
   INSTANCE: PART-1-1                                                                        
          THE FORCE     EQUILIBRIUM EQUATIONS HAVE CONVERGED

 AVERAGE HEAT FLUX                  5.706E+11   TIME AVG. HEAT FLUX   6.500E+11
 LARGEST RESIDUAL HEAT FLUX        -6.818E+10   AT NODE      17348   DOF 11
   INSTANCE: PART-1-1                                                                        
 LARGEST INCREMENT OF TEMP.         5.331E+10   AT NODE          1   DOF 11
   INSTANCE: PART-1-1                                                                        
 LARGEST CORRECTION TO TEMP.        7.163E+09   AT NODE       3415   DOF 11
   INSTANCE: PART-1-1                                                                        
          HEAT FLUX EQUILIBRIUM NOT ACHIEVED WITHIN TOLERANCE.
 
	UNSYMMETRIC NEW DIRECT SPARSE SOLVER RUNNING ON
 	1 HOST x 1 MPI RANK PER HOST x 4 THREADS PER RANK
        NUMBER OF EQUATIONS:  43736
        NUMBER OF RHS:        1
        NUMBER OF FLOPS:      2.157e+09
        SOLVER ELAPSED TIME:  43ms

               CONVERGENCE CHECKS FOR EQUILIBRIUM ITERATION     2


 AVERAGE FORCE                      3.631E-02   TIME AVG. FORCE       1.079E-02
 LARGEST SCALED RESIDUAL FORCE     -8.661E-13   AT NODE      18427   DOF  2
   INSTANCE: PART-1-1                                                                        
  CORRESPONDING RESIDUAL FORCE     -8.661E-13
 LARGEST INCREMENT OF DISP.         8.955E-05   AT NODE      16772   DOF  2
   INSTANCE: PART-1-1                                                                        
 LARGEST CORRECTION TO DISP.        1.891E-14   AT NODE        222   DOF  2
   INSTANCE: PART-1-1                                                                        
          THE FORCE     EQUILIBRIUM EQUATIONS HAVE CONVERGED

 AVERAGE HEAT FLUX                  5.715E+11   TIME AVG. HEAT FLUX   6.501E+11
 LARGEST RESIDUAL HEAT FLUX         1.172E+09   AT NODE      17348   DOF 11
   INSTANCE: PART-1-1                                                                        
 LARGEST INCREMENT OF TEMP.         5.331E+10   AT NODE          1   DOF 11
   INSTANCE: PART-1-1                                                                        
 LARGEST CORRECTION TO TEMP.        5.922E+08   AT NODE       3469   DOF 11
   INSTANCE: PART-1-1                                                                        
 ESTIMATE OF TEMP.    CORRECTION   -1.018E+07
 HEAT FLUX EQUILIB. ACCEPTED BASED ON SMALL RESIDUAL AND ESTIMATED CORRECTION

 MAXIMUM NON-PRESCRIBED INCREMENT IN TEMPERATURE IS   5.272E+10
          TIME INCREMENT MAY NOW INCREASE TO    3.037E-03

 ITERATION SUMMARY FOR THE INCREMENT:   2 TOTAL ITERATIONS, OF WHICH
   0 ARE SEVERE DISCONTINUITY ITERATIONS AND  2 ARE EQUILIBRIUM ITERATIONS.

 TIME INCREMENT COMPLETED  2.025E-03,  FRACTION OF STEP COMPLETED  5.775E-03
 STEP TIME COMPLETED       5.775E-03,  TOTAL TIME COMPLETED        5.775E-03


  INCREMENT    10 STARTS. ATTEMPT NUMBER  1, TIME INCREMENT  3.037E-03
 
	UNSYMMETRIC NEW DIRECT SPARSE SOLVER RUNNING ON
 	1 HOST x 1 MPI RANK PER HOST x 4 THREADS PER RANK
        NUMBER OF EQUATIONS:  43736
        NUMBER OF RHS:        1
        NUMBER OF FLOPS:      2.157e+09
        SOLVER ELAPSED TIME:  42ms

               CONVERGENCE CHECKS FOR EQUILIBRIUM ITERATION     1


 AVERAGE FORCE                      5.537E-02   TIME AVG. FORCE       1.525E-02
 LARGEST SCALED RESIDUAL FORCE     -4.918E-10   AT NODE        811   DOF  2
   INSTANCE: PART-1-1                                                                        
  CORRESPONDING RESIDUAL FORCE     -4.918E-10
 LARGEST INCREMENT OF DISP.         1.343E-04   AT NODE      16772   DOF  2
   INSTANCE: PART-1-1                                                                        
 LARGEST CORRECTION TO DISP.        7.245E-10   AT NODE       1085   DOF  1
   INSTANCE: PART-1-1                                                                        
          THE FORCE     EQUILIBRIUM EQUATIONS HAVE CONVERGED

 AVERAGE HEAT FLUX                  4.925E+11   TIME AVG. HEAT FLUX   6.344E+11
 LARGEST RESIDUAL HEAT FLUX        -1.073E+11   AT NODE      17348   DOF 11
   INSTANCE: PART-1-1                                                                        
 LARGEST INCREMENT OF TEMP.         7.996E+10   AT NODE          1   DOF 11
   INSTANCE: PART-1-1                                                                        
 LARGEST CORRECTION TO TEMP.        1.157E+10   AT NODE       3382   DOF 11
   INSTANCE: PART-1-1                                                                        
          HEAT FLUX EQUILIBRIUM NOT ACHIEVED WITHIN TOLERANCE.
 
	UNSYMMETRIC NEW DIRECT SPARSE SOLVER RUNNING ON
 	1 HOST x 1 MPI RANK PER HOST x 4 THREADS PER RANK
        NUMBER OF EQUATIONS:  43736
        NUMBER OF RHS:        1
        NUMBER OF FLOPS:      2.157e+09
        SOLVER ELAPSED TIME:  42ms

               CONVERGENCE CHECKS FOR EQUILIBRIUM ITERATION     2


 AVERAGE FORCE                      5.537E-02   TIME AVG. FORCE       1.525E-02
 LARGEST SCALED RESIDUAL FORCE     -1.027E-12   AT NODE      18531   DOF  2
   INSTANCE: PART-1-1                                                                        
  CORRESPONDING RESIDUAL FORCE     -1.027E-12
 LARGEST INCREMENT OF DISP.         1.343E-04   AT NODE      16772   DOF  2
   INSTANCE: PART-1-1                                                                        
 LARGEST CORRECTION TO DISP.        6.383E-14   AT NODE        560   DOF  2
   INSTANCE: PART-1-1                                                                        
          THE FORCE     EQUILIBRIUM EQUATIONS HAVE CONVERGED

 AVERAGE HEAT FLUX                  4.931E+11   TIME AVG. HEAT FLUX   6.344E+11
 LARGEST RESIDUAL HEAT FLUX         2.519E+09   AT NODE      17348   DOF 11
   INSTANCE: PART-1-1                                                                        
 LARGEST INCREMENT OF TEMP.         7.996E+10   AT NODE          1   DOF 11
   INSTANCE: PART-1-1                                                                        
 LARGEST CORRECTION TO TEMP.        1.337E+09   AT NODE       3436   DOF 11
   INSTANCE: PART-1-1                                                                        
 ESTIMATE OF TEMP.    CORRECTION   -3.138E+07
 HEAT FLUX EQUILIB. ACCEPTED BASED ON SMALL RESIDUAL AND ESTIMATED CORRECTION

 MAXIMUM NON-PRESCRIBED INCREMENT IN TEMPERATURE IS   7.926E+10
          TIME INCREMENT MAY NOW INCREASE TO    4.556E-03

 ITERATION SUMMARY FOR THE INCREMENT:   2 TOTAL ITERATIONS, OF WHICH
   0 ARE SEVERE DISCONTINUITY ITERATIONS AND  2 ARE EQUILIBRIUM ITERATIONS.

 TIME INCREMENT COMPLETED  3.037E-03,  FRACTION OF STEP COMPLETED  8.813E-03
 STEP TIME COMPLETED       8.813E-03,  TOTAL TIME COMPLETED        8.813E-03


  INCREMENT    11 STARTS. ATTEMPT NUMBER  1, TIME INCREMENT  4.556E-03
 
	UNSYMMETRIC NEW DIRECT SPARSE SOLVER RUNNING ON
 	1 HOST x 1 MPI RANK PER HOST x 4 THREADS PER RANK
        NUMBER OF EQUATIONS:  43736
        NUMBER OF RHS:        1
        NUMBER OF FLOPS:      2.157e+09
        SOLVER ELAPSED TIME:  42ms

               CONVERGENCE CHECKS FOR EQUILIBRIUM ITERATION     1


 AVERAGE FORCE                      8.395E-02   TIME AVG. FORCE       2.149E-02
 LARGEST SCALED RESIDUAL FORCE     -1.659E-09   AT NODE        811   DOF  2
   INSTANCE: PART-1-1                                                                        
  CORRESPONDING RESIDUAL FORCE     -1.659E-09
 LARGEST INCREMENT OF DISP.         2.015E-04   AT NODE      16772   DOF  2
   INSTANCE: PART-1-1                                                                        
 LARGEST CORRECTION TO DISP.        1.630E-09   AT NODE       1085   DOF  1
   INSTANCE: PART-1-1                                                                        
          THE FORCE     EQUILIBRIUM EQUATIONS HAVE CONVERGED

 AVERAGE HEAT FLUX                  4.058E+11   TIME AVG. HEAT FLUX   6.136E+11
 LARGEST RESIDUAL HEAT FLUX        -1.663E+11   AT NODE      17348   DOF 11
   INSTANCE: PART-1-1                                                                        
 LARGEST INCREMENT OF TEMP.         1.199E+11   AT NODE          1   DOF 11
   INSTANCE: PART-1-1                                                                        
 LARGEST CORRECTION TO TEMP.        1.906E+10   AT NODE       3360   DOF 11
   INSTANCE: PART-1-1                                                                        
          HEAT FLUX EQUILIBRIUM NOT ACHIEVED WITHIN TOLERANCE.
 
	UNSYMMETRIC NEW DIRECT SPARSE SOLVER RUNNING ON
 	1 HOST x 1 MPI RANK PER HOST x 4 THREADS PER RANK
        NUMBER OF EQUATIONS:  43736
        NUMBER OF RHS:        1
        NUMBER OF FLOPS:      2.157e+09
        SOLVER ELAPSED TIME:  45ms

               CONVERGENCE CHECKS FOR EQUILIBRIUM ITERATION     2


 AVERAGE FORCE                      8.395E-02   TIME AVG. FORCE       2.149E-02
 LARGEST SCALED RESIDUAL FORCE      1.987E-12   AT NODE      18525   DOF  2
   INSTANCE: PART-1-1                                                                        
  CORRESPONDING RESIDUAL FORCE      1.987E-12
 LARGEST INCREMENT OF DISP.         2.015E-04   AT NODE      16772   DOF  2
   INSTANCE: PART-1-1                                                                        
 LARGEST CORRECTION TO DISP.        2.153E-13   AT NODE        562   DOF  2
   INSTANCE: PART-1-1                                                                        
          THE FORCE     EQUILIBRIUM EQUATIONS HAVE CONVERGED

 AVERAGE HEAT FLUX                  4.071E+11   TIME AVG. HEAT FLUX   6.137E+11
 LARGEST RESIDUAL HEAT FLUX         5.400E+09   AT NODE      17348   DOF 11
   INSTANCE: PART-1-1                                                                        
 LARGEST INCREMENT OF TEMP.         1.199E+11   AT NODE          1   DOF 11
   INSTANCE: PART-1-1                                                                        
 LARGEST CORRECTION TO TEMP.        2.980E+09   AT NODE       3403   DOF 11
   INSTANCE: PART-1-1                                                                        
          HEAT FLUX EQUILIBRIUM NOT ACHIEVED WITHIN TOLERANCE.
 
	UNSYMMETRIC NEW DIRECT SPARSE SOLVER RUNNING ON
 	1 HOST x 1 MPI RANK PER HOST x 4 THREADS PER RANK
        NUMBER OF EQUATIONS:  43736
        NUMBER OF RHS:        1
        NUMBER OF FLOPS:      2.157e+09
        SOLVER ELAPSED TIME:  43ms

               CONVERGENCE CHECKS FOR EQUILIBRIUM ITERATION     3


 AVERAGE FORCE                      8.395E-02   TIME AVG. FORCE       2.149E-02
 LARGEST SCALED RESIDUAL FORCE     -2.296E-12   AT NODE      18527   DOF  2
   INSTANCE: PART-1-1                                                                        
  CORRESPONDING RESIDUAL FORCE     -2.296E-12
 LARGEST INCREMENT OF DISP.         2.015E-04   AT NODE      16772   DOF  2
   INSTANCE: PART-1-1                                                                        
 LARGEST CORRECTION TO DISP.       -1.125E-16   AT NODE        811   DOF  2
   INSTANCE: PART-1-1                                                                        
          THE FORCE     EQUILIBRIUM EQUATIONS HAVE CONVERGED

 AVERAGE HEAT FLUX                  4.071E+11   TIME AVG. HEAT FLUX   6.137E+11
 LARGEST RESIDUAL HEAT FLUX        -1.609E+08   AT NODE      17348   DOF 11
   INSTANCE: PART-1-1                                                                        
 LARGEST INCREMENT OF TEMP.         1.199E+11   AT NODE          1   DOF 11
   INSTANCE: PART-1-1                                                                        
 LARGEST CORRECTION TO TEMP.        4.579E+08   AT NODE       3403   DOF 11
   INSTANCE: PART-1-1                                                                        
          THE HEAT FLUX EQUILIBRIUM EQUATIONS HAVE CONVERGED

 MAXIMUM NON-PRESCRIBED INCREMENT IN TEMPERATURE IS   1.191E+11
          TIME INCREMENT MAY NOW INCREASE TO    6.834E-03

 ITERATION SUMMARY FOR THE INCREMENT:   3 TOTAL ITERATIONS, OF WHICH
   0 ARE SEVERE DISCONTINUITY ITERATIONS AND  3 ARE EQUILIBRIUM ITERATIONS.

 TIME INCREMENT COMPLETED  4.556E-03,  FRACTION OF STEP COMPLETED  1.337E-02
 STEP TIME COMPLETED       1.337E-02,  TOTAL TIME COMPLETED        1.337E-02


  INCREMENT    12 STARTS. ATTEMPT NUMBER  1, TIME INCREMENT  6.834E-03
 
	UNSYMMETRIC NEW DIRECT SPARSE SOLVER RUNNING ON
 	1 HOST x 1 MPI RANK PER HOST x 4 THREADS PER RANK
        NUMBER OF EQUATIONS:  43736
        NUMBER OF RHS:        1
        NUMBER OF FLOPS:      2.157e+09
        SOLVER ELAPSED TIME:  43ms

               CONVERGENCE CHECKS FOR EQUILIBRIUM ITERATION     1


 AVERAGE FORCE                      0.127       TIME AVG. FORCE       3.026E-02
 LARGEST SCALED RESIDUAL FORCE     -7.394E-04   AT NODE       1056   DOF  1
   INSTANCE: PART-1-1                                                                        
  CORRESPONDING RESIDUAL FORCE     -7.394E-04
 LARGEST INCREMENT OF DISP.         3.022E-04   AT NODE      16772   DOF  2
   INSTANCE: PART-1-1                                                                        
 LARGEST CORRECTION TO DISP.        8.420E-08   AT NODE        641   DOF  2
   INSTANCE: PART-1-1                                                                        
          FORCE     EQUILIBRIUM NOT ACHIEVED WITHIN TOLERANCE.

 AVERAGE HEAT FLUX                  3.170E+11   TIME AVG. HEAT FLUX   5.890E+11
 LARGEST RESIDUAL HEAT FLUX        -2.670E+11   AT NODE      17348   DOF 11
   INSTANCE: PART-1-1                                                                        
 LARGEST INCREMENT OF TEMP.         1.799E+11   AT NODE          1   DOF 11
   INSTANCE: PART-1-1                                                                        
 LARGEST CORRECTION TO TEMP.        3.120E+10   AT NODE       3327   DOF 11
   INSTANCE: PART-1-1                                                                        
          HEAT FLUX EQUILIBRIUM NOT ACHIEVED WITHIN TOLERANCE.
 
	UNSYMMETRIC NEW DIRECT SPARSE SOLVER RUNNING ON
 	1 HOST x 1 MPI RANK PER HOST x 4 THREADS PER RANK
        NUMBER OF EQUATIONS:  43736
        NUMBER OF RHS:        1
        NUMBER OF FLOPS:      2.157e+09
        SOLVER ELAPSED TIME:  48ms

               CONVERGENCE CHECKS FOR EQUILIBRIUM ITERATION     2


 AVERAGE FORCE                      0.127       TIME AVG. FORCE       3.027E-02
 LARGEST SCALED RESIDUAL FORCE      2.405E-05   AT NODE        720   DOF  2
   INSTANCE: PART-1-1                                                                        
  CORRESPONDING RESIDUAL FORCE      2.405E-05
 LARGEST INCREMENT OF DISP.         3.022E-04   AT NODE      16772   DOF  2
   INSTANCE: PART-1-1                                                                        
 LARGEST CORRECTION TO DISP.        6.370E-09   AT NODE       1061   DOF  1
   INSTANCE: PART-1-1                                                                        
          THE FORCE     EQUILIBRIUM EQUATIONS HAVE CONVERGED

 AVERAGE HEAT FLUX                  3.189E+11   TIME AVG. HEAT FLUX   5.892E+11
 LARGEST RESIDUAL HEAT FLUX         1.227E+10   AT NODE      17348   DOF 11
   INSTANCE: PART-1-1                                                                        
 LARGEST INCREMENT OF TEMP.         1.799E+11   AT NODE          1   DOF 11
   INSTANCE: PART-1-1                                                                        
 LARGEST CORRECTION TO TEMP.        6.446E+09   AT NODE       3251   DOF 11
   INSTANCE: PART-1-1                                                                        
          HEAT FLUX EQUILIBRIUM NOT ACHIEVED WITHIN TOLERANCE.
 
	UNSYMMETRIC NEW DIRECT SPARSE SOLVER RUNNING ON
 	1 HOST x 1 MPI RANK PER HOST x 4 THREADS PER RANK
        NUMBER OF EQUATIONS:  43736
        NUMBER OF RHS:        1
        NUMBER OF FLOPS:      2.157e+09
        SOLVER ELAPSED TIME:  43ms

               CONVERGENCE CHECKS FOR EQUILIBRIUM ITERATION     3


 AVERAGE FORCE                      0.127       TIME AVG. FORCE       3.027E-02
 LARGEST SCALED RESIDUAL FORCE     -4.902E-08   AT NODE        720   DOF  2
   INSTANCE: PART-1-1                                                                        
  CORRESPONDING RESIDUAL FORCE     -4.902E-08
 LARGEST INCREMENT OF DISP.         3.022E-04   AT NODE      16772   DOF  2
   INSTANCE: PART-1-1                                                                        
 LARGEST CORRECTION TO DISP.        7.365E-11   AT NODE        720   DOF  2
   INSTANCE: PART-1-1                                                                        
          THE FORCE     EQUILIBRIUM EQUATIONS HAVE CONVERGED

 AVERAGE HEAT FLUX                  3.186E+11   TIME AVG. HEAT FLUX   5.891E+11
 LARGEST RESIDUAL HEAT FLUX        -5.208E+08   AT NODE      17348   DOF 11
   INSTANCE: PART-1-1                                                                        
 LARGEST INCREMENT OF TEMP.         2.374E+11   AT NODE        774   DOF 11
   INSTANCE: PART-1-1                                                                        
 LARGEST CORRECTION TO TEMP.        6.756E+10   AT NODE        774   DOF 11
   INSTANCE: PART-1-1                                                                        
          TEMP.    CORRECTION TOO LARGE COMPARED TO TEMP.    INCREMENT
 
	UNSYMMETRIC NEW DIRECT SPARSE SOLVER RUNNING ON
 	1 HOST x 1 MPI RANK PER HOST x 4 THREADS PER RANK
        NUMBER OF EQUATIONS:  43736
        NUMBER OF RHS:        1
        NUMBER OF FLOPS:      2.157e+09
        SOLVER ELAPSED TIME:  42ms

               CONVERGENCE CHECKS FOR EQUILIBRIUM ITERATION     4


 AVERAGE FORCE                      0.127       TIME AVG. FORCE       3.027E-02
 LARGEST SCALED RESIDUAL FORCE     -1.699E-10   AT NODE        932   DOF  2
   INSTANCE: PART-1-1                                                                        
  CORRESPONDING RESIDUAL FORCE     -1.699E-10
 LARGEST INCREMENT OF DISP.         3.022E-04   AT NODE      16772   DOF  2
   INSTANCE: PART-1-1                                                                        
 LARGEST CORRECTION TO DISP.        1.216E-13   AT NODE        741   DOF  2
   INSTANCE: PART-1-1                                                                        
          THE FORCE     EQUILIBRIUM EQUATIONS HAVE CONVERGED

 AVERAGE HEAT FLUX                  3.191E+11   TIME AVG. HEAT FLUX   5.892E+11
 LARGEST RESIDUAL HEAT FLUX         2.315E+07   AT NODE      17348   DOF 11
   INSTANCE: PART-1-1                                                                        
 LARGEST INCREMENT OF TEMP.         2.367E+11   AT NODE        649   DOF 11
   INSTANCE: PART-1-1                                                                        
 LARGEST CORRECTION TO TEMP.        9.318E+09   AT NODE        649   DOF 11
   INSTANCE: PART-1-1                                                                        
 ESTIMATE OF TEMP.    CORRECTION   -4.142E+08
 HEAT FLUX EQUILIB. ACCEPTED BASED ON SMALL RESIDUAL AND ESTIMATED CORRECTION

 MAXIMUM NON-PRESCRIBED INCREMENT IN TEMPERATURE IS   2.367E+11
          TIME INCREMENT MAY NOW INCREASE TO    1.000E-02

 ITERATION SUMMARY FOR THE INCREMENT:   4 TOTAL ITERATIONS, OF WHICH
   0 ARE SEVERE DISCONTINUITY ITERATIONS AND  4 ARE EQUILIBRIUM ITERATIONS.

 TIME INCREMENT COMPLETED  6.834E-03,  FRACTION OF STEP COMPLETED  2.020E-02
 STEP TIME COMPLETED       2.020E-02,  TOTAL TIME COMPLETED        2.020E-02


  INCREMENT    13 STARTS. ATTEMPT NUMBER  1, TIME INCREMENT  1.000E-02
 
	UNSYMMETRIC NEW DIRECT SPARSE SOLVER RUNNING ON
 	1 HOST x 1 MPI RANK PER HOST x 4 THREADS PER RANK
        NUMBER OF EQUATIONS:  43736
        NUMBER OF RHS:        1
        NUMBER OF FLOPS:      2.157e+09
        SOLVER ELAPSED TIME:  48ms

               CONVERGENCE CHECKS FOR EQUILIBRIUM ITERATION     1


 AVERAGE FORCE                      0.189       TIME AVG. FORCE       4.250E-02
 LARGEST SCALED RESIDUAL FORCE     -2.012E-03   AT NODE        399   DOF  1
   INSTANCE: PART-1-1                                                                        
  CORRESPONDING RESIDUAL FORCE     -2.012E-03
 LARGEST INCREMENT OF DISP.         4.422E-04   AT NODE      16772   DOF  2
   INSTANCE: PART-1-1                                                                        
 LARGEST CORRECTION TO DISP.        3.263E-07   AT NODE        639   DOF  1
   INSTANCE: PART-1-1                                                                        
          FORCE     EQUILIBRIUM NOT ACHIEVED WITHIN TOLERANCE.

 AVERAGE HEAT FLUX                  2.024E+11   TIME AVG. HEAT FLUX   5.594E+11
 LARGEST RESIDUAL HEAT FLUX        -4.190E+11   AT NODE      17348   DOF 11
   INSTANCE: PART-1-1                                                                        
 LARGEST INCREMENT OF TEMP.         2.727E+11   AT NODE        763   DOF 11
   INSTANCE: PART-1-1                                                                        
 LARGEST CORRECTION TO TEMP.       -7.412E+10   AT NODE        649   DOF 11
   INSTANCE: PART-1-1                                                                        
          HEAT FLUX EQUILIBRIUM NOT ACHIEVED WITHIN TOLERANCE.
 
	UNSYMMETRIC NEW DIRECT SPARSE SOLVER RUNNING ON
 	1 HOST x 1 MPI RANK PER HOST x 4 THREADS PER RANK
        NUMBER OF EQUATIONS:  43736
        NUMBER OF RHS:        1
        NUMBER OF FLOPS:      2.157e+09
        SOLVER ELAPSED TIME:  51ms

               CONVERGENCE CHECKS FOR EQUILIBRIUM ITERATION     2


 AVERAGE FORCE                      0.189       TIME AVG. FORCE       4.251E-02
 LARGEST SCALED RESIDUAL FORCE      1.087E-04   AT NODE       1021   DOF  1
   INSTANCE: PART-1-1                                                                        
  CORRESPONDING RESIDUAL FORCE      1.087E-04
 LARGEST INCREMENT OF DISP.         4.422E-04   AT NODE      16772   DOF  2
   INSTANCE: PART-1-1                                                                        
 LARGEST CORRECTION TO DISP.        5.807E-08   AT NODE        639   DOF  1
   INSTANCE: PART-1-1                                                                        
          THE FORCE     EQUILIBRIUM EQUATIONS HAVE CONVERGED

 AVERAGE HEAT FLUX                  2.053E+11   TIME AVG. HEAT FLUX   5.597E+11
 LARGEST RESIDUAL HEAT FLUX         2.677E+10   AT NODE      17348   DOF 11
   INSTANCE: PART-1-1                                                                        
 LARGEST INCREMENT OF TEMP.         4.219E+11   AT NODE        649   DOF 11
   INSTANCE: PART-1-1                                                                        
 LARGEST CORRECTION TO TEMP.        1.496E+11   AT NODE        649   DOF 11
   INSTANCE: PART-1-1                                                                        
          HEAT FLUX EQUILIBRIUM NOT ACHIEVED WITHIN TOLERANCE.
 
	UNSYMMETRIC NEW DIRECT SPARSE SOLVER RUNNING ON
 	1 HOST x 1 MPI RANK PER HOST x 4 THREADS PER RANK
        NUMBER OF EQUATIONS:  43736
        NUMBER OF RHS:        1
        NUMBER OF FLOPS:      2.157e+09
        SOLVER ELAPSED TIME:  48ms

               CONVERGENCE CHECKS FOR EQUILIBRIUM ITERATION     3


 AVERAGE FORCE                      0.189       TIME AVG. FORCE       4.251E-02
 LARGEST SCALED RESIDUAL FORCE     -4.592E-06   AT NODE        149   DOF  1
   INSTANCE: PART-1-1                                                                        
  CORRESPONDING RESIDUAL FORCE     -4.592E-06
 LARGEST INCREMENT OF DISP.         4.422E-04   AT NODE      16772   DOF  2
   INSTANCE: PART-1-1                                                                        
 LARGEST CORRECTION TO DISP.        1.617E-09   AT NODE        647   DOF  1
   INSTANCE: PART-1-1                                                                        
          THE FORCE     EQUILIBRIUM EQUATIONS HAVE CONVERGED

 AVERAGE HEAT FLUX                  2.129E+11   TIME AVG. HEAT FLUX   5.602E+11
 LARGEST RESIDUAL HEAT FLUX        -1.623E+09   AT NODE      17348   DOF 11
   INSTANCE: PART-1-1                                                                        
 LARGEST INCREMENT OF TEMP.         3.947E+11   AT NODE        638   DOF 11
   INSTANCE: PART-1-1                                                                        
 LARGEST CORRECTION TO TEMP.       -9.906E+10   AT NODE        763   DOF 11
   INSTANCE: PART-1-1                                                                        
          TEMP.    CORRECTION TOO LARGE COMPARED TO TEMP.    INCREMENT
 
	UNSYMMETRIC NEW DIRECT SPARSE SOLVER RUNNING ON
 	1 HOST x 1 MPI RANK PER HOST x 4 THREADS PER RANK
        NUMBER OF EQUATIONS:  43736
        NUMBER OF RHS:        1
        NUMBER OF FLOPS:      2.157e+09
        SOLVER ELAPSED TIME:  43ms

               CONVERGENCE CHECKS FOR EQUILIBRIUM ITERATION     4


 AVERAGE FORCE                      0.189       TIME AVG. FORCE       4.251E-02
 LARGEST SCALED RESIDUAL FORCE     -1.051E-08   AT NODE        370   DOF  1
   INSTANCE: PART-1-1                                                                        
  CORRESPONDING RESIDUAL FORCE     -1.051E-08
 LARGEST INCREMENT OF DISP.         4.422E-04   AT NODE      16772   DOF  2
   INSTANCE: PART-1-1                                                                        
 LARGEST CORRECTION TO DISP.        1.649E-11   AT NODE        346   DOF  1
   INSTANCE: PART-1-1                                                                        
          THE FORCE     EQUILIBRIUM EQUATIONS HAVE CONVERGED

 AVERAGE HEAT FLUX                  2.128E+11   TIME AVG. HEAT FLUX   5.602E+11
 LARGEST RESIDUAL HEAT FLUX         1.010E+08   AT NODE      17348   DOF 11
   INSTANCE: PART-1-1                                                                        
 LARGEST INCREMENT OF TEMP.         3.957E+11   AT NODE        651   DOF 11
   INSTANCE: PART-1-1                                                                        
 LARGEST CORRECTION TO TEMP.        2.400E+10   AT NODE        651   DOF 11
   INSTANCE: PART-1-1                                                                        
 ESTIMATE OF TEMP.    CORRECTION   -1.494E+09
 HEAT FLUX EQUILIB. ACCEPTED BASED ON SMALL RESIDUAL AND ESTIMATED CORRECTION

 MAXIMUM NON-PRESCRIBED INCREMENT IN TEMPERATURE IS   3.957E+11

 ITERATION SUMMARY FOR THE INCREMENT:   4 TOTAL ITERATIONS, OF WHICH
   0 ARE SEVERE DISCONTINUITY ITERATIONS AND  4 ARE EQUILIBRIUM ITERATIONS.

 TIME INCREMENT COMPLETED  1.000E-02,  FRACTION OF STEP COMPLETED  3.020E-02
 STEP TIME COMPLETED       3.020E-02,  TOTAL TIME COMPLETED        3.020E-02


  INCREMENT    14 STARTS. ATTEMPT NUMBER  1, TIME INCREMENT  1.000E-02
 
	UNSYMMETRIC NEW DIRECT SPARSE SOLVER RUNNING ON
 	1 HOST x 1 MPI RANK PER HOST x 4 THREADS PER RANK
        NUMBER OF EQUATIONS:  43736
        NUMBER OF RHS:        1
        NUMBER OF FLOPS:      2.157e+09
        SOLVER ELAPSED TIME:  44ms

               CONVERGENCE CHECKS FOR EQUILIBRIUM ITERATION     1


 AVERAGE FORCE                      0.252       TIME AVG. FORCE       5.749E-02
 LARGEST SCALED RESIDUAL FORCE     -2.848E-03   AT NODE        402   DOF  1
   INSTANCE: PART-1-1                                                                        
  CORRESPONDING RESIDUAL FORCE     -2.848E-03
 LARGEST INCREMENT OF DISP.         4.422E-04   AT NODE      16772   DOF  2
   INSTANCE: PART-1-1                                                                        
 LARGEST CORRECTION TO DISP.        5.029E-07   AT NODE        639   DOF  1
   INSTANCE: PART-1-1                                                                        
          FORCE     EQUILIBRIUM NOT ACHIEVED WITHIN TOLERANCE.

 AVERAGE HEAT FLUX                  1.174E+11   TIME AVG. HEAT FLUX   5.286E+11
 LARGEST RESIDUAL HEAT FLUX        -2.994E+11   AT NODE      17348   DOF 11
   INSTANCE: PART-1-1                                                                        
 LARGEST INCREMENT OF TEMP.         2.935E+11   AT NODE        769   DOF 11
   INSTANCE: PART-1-1                                                                        
 LARGEST CORRECTION TO TEMP.       -1.033E+11   AT NODE        651   DOF 11
   INSTANCE: PART-1-1                                                                        
          HEAT FLUX EQUILIBRIUM NOT ACHIEVED WITHIN TOLERANCE.
 
	UNSYMMETRIC NEW DIRECT SPARSE SOLVER RUNNING ON
 	1 HOST x 1 MPI RANK PER HOST x 4 THREADS PER RANK
        NUMBER OF EQUATIONS:  43736
        NUMBER OF RHS:        1
        NUMBER OF FLOPS:      2.157e+09
        SOLVER ELAPSED TIME:  43ms

               CONVERGENCE CHECKS FOR EQUILIBRIUM ITERATION     2


 AVERAGE FORCE                      0.252       TIME AVG. FORCE       5.749E-02
 LARGEST SCALED RESIDUAL FORCE     -9.131E-05   AT NODE        352   DOF  2
   INSTANCE: PART-1-1                                                                        
  CORRESPONDING RESIDUAL FORCE     -9.131E-05
 LARGEST INCREMENT OF DISP.         4.422E-04   AT NODE      16772   DOF  2
   INSTANCE: PART-1-1                                                                        
 LARGEST CORRECTION TO DISP.        5.381E-08   AT NODE        658   DOF  1
   INSTANCE: PART-1-1                                                                        
          THE FORCE     EQUILIBRIUM EQUATIONS HAVE CONVERGED

 AVERAGE HEAT FLUX                  1.186E+11   TIME AVG. HEAT FLUX   5.287E+11
 LARGEST RESIDUAL HEAT FLUX         1.798E+10   AT NODE      17348   DOF 11
   INSTANCE: PART-1-1                                                                        
 LARGEST INCREMENT OF TEMP.         5.028E+11   AT NODE        651   DOF 11
   INSTANCE: PART-1-1                                                                        
 LARGEST CORRECTION TO TEMP.        2.104E+11   AT NODE        651   DOF 11
   INSTANCE: PART-1-1                                                                        
          HEAT FLUX EQUILIBRIUM NOT ACHIEVED WITHIN TOLERANCE.
 
	UNSYMMETRIC NEW DIRECT SPARSE SOLVER RUNNING ON
 	1 HOST x 1 MPI RANK PER HOST x 4 THREADS PER RANK
        NUMBER OF EQUATIONS:  43736
        NUMBER OF RHS:        1
        NUMBER OF FLOPS:      2.157e+09
        SOLVER ELAPSED TIME:  42ms

               CONVERGENCE CHECKS FOR EQUILIBRIUM ITERATION     3


 AVERAGE FORCE                      0.252       TIME AVG. FORCE       5.749E-02
 LARGEST SCALED RESIDUAL FORCE      3.292E-07   AT NODE        110   DOF  1
   INSTANCE: PART-1-1                                                                        
  CORRESPONDING RESIDUAL FORCE      3.292E-07
 LARGEST INCREMENT OF DISP.         4.422E-04   AT NODE      16772   DOF  2
   INSTANCE: PART-1-1                                                                        
 LARGEST CORRECTION TO DISP.        1.645E-09   AT NODE        677   DOF  1
   INSTANCE: PART-1-1                                                                        
          THE FORCE     EQUILIBRIUM EQUATIONS HAVE CONVERGED

 AVERAGE HEAT FLUX                  1.236E+11   TIME AVG. HEAT FLUX   5.290E+11
 LARGEST RESIDUAL HEAT FLUX        -1.045E+09   AT NODE      17348   DOF 11
   INSTANCE: PART-1-1                                                                        
 LARGEST INCREMENT OF TEMP.         4.796E+11   AT NODE       1122   DOF 11
   INSTANCE: PART-1-1                                                                        
 LARGEST CORRECTION TO TEMP.       -1.331E+11   AT NODE        651   DOF 11
   INSTANCE: PART-1-1                                                                        
          TEMP.    CORRECTION TOO LARGE COMPARED TO TEMP.    INCREMENT
 
	UNSYMMETRIC NEW DIRECT SPARSE SOLVER RUNNING ON
 	1 HOST x 1 MPI RANK PER HOST x 4 THREADS PER RANK
        NUMBER OF EQUATIONS:  43736
        NUMBER OF RHS:        1
        NUMBER OF FLOPS:      2.157e+09
        SOLVER ELAPSED TIME:  41ms

               CONVERGENCE CHECKS FOR EQUILIBRIUM ITERATION     4


 AVERAGE FORCE                      0.252       TIME AVG. FORCE       5.749E-02
 LARGEST SCALED RESIDUAL FORCE      1.238E-09   AT NODE       1810   DOF  2
   INSTANCE: PART-1-1                                                                        
  CORRESPONDING RESIDUAL FORCE      1.238E-09
 LARGEST INCREMENT OF DISP.         4.422E-04   AT NODE      16772   DOF  2
   INSTANCE: PART-1-1                                                                        
 LARGEST CORRECTION TO DISP.        4.596E-12   AT NODE        634   DOF  1
   INSTANCE: PART-1-1                                                                        
          THE FORCE     EQUILIBRIUM EQUATIONS HAVE CONVERGED

 AVERAGE HEAT FLUX                  1.236E+11   TIME AVG. HEAT FLUX   5.290E+11
 LARGEST RESIDUAL HEAT FLUX         6.166E+07   AT NODE      17348   DOF 11
   INSTANCE: PART-1-1                                                                        
 LARGEST INCREMENT OF TEMP.         4.531E+11   AT NODE       1122   DOF 11
   INSTANCE: PART-1-1                                                                        
 LARGEST CORRECTION TO TEMP.        3.447E+10   AT NODE        142   DOF 11
   INSTANCE: PART-1-1                                                                        
 ESTIMATE OF TEMP.    CORRECTION   -2.033E+09
 HEAT FLUX EQUILIB. ACCEPTED BASED ON SMALL RESIDUAL AND ESTIMATED CORRECTION

 MAXIMUM NON-PRESCRIBED INCREMENT IN TEMPERATURE IS   4.531E+11

 ITERATION SUMMARY FOR THE INCREMENT:   4 TOTAL ITERATIONS, OF WHICH
   0 ARE SEVERE DISCONTINUITY ITERATIONS AND  4 ARE EQUILIBRIUM ITERATIONS.

 TIME INCREMENT COMPLETED  1.000E-02,  FRACTION OF STEP COMPLETED  4.020E-02
 STEP TIME COMPLETED       4.020E-02,  TOTAL TIME COMPLETED        4.020E-02


  INCREMENT    15 STARTS. ATTEMPT NUMBER  1, TIME INCREMENT  1.000E-02
 
	UNSYMMETRIC NEW DIRECT SPARSE SOLVER RUNNING ON
 	1 HOST x 1 MPI RANK PER HOST x 4 THREADS PER RANK
        NUMBER OF EQUATIONS:  43736
        NUMBER OF RHS:        1
        NUMBER OF FLOPS:      2.157e+09
        SOLVER ELAPSED TIME:  42ms

               CONVERGENCE CHECKS FOR EQUILIBRIUM ITERATION     1


 AVERAGE FORCE                      0.315       TIME AVG. FORCE       7.467E-02
 LARGEST SCALED RESIDUAL FORCE     -2.593E-03   AT NODE       1750   DOF  1
   INSTANCE: PART-1-1                                                                        
  CORRESPONDING RESIDUAL FORCE     -2.593E-03
 LARGEST INCREMENT OF DISP.         4.422E-04   AT NODE      16772   DOF  2
   INSTANCE: PART-1-1                                                                        
 LARGEST CORRECTION TO DISP.        5.504E-07   AT NODE        639   DOF  1
   INSTANCE: PART-1-1                                                                        
          FORCE     EQUILIBRIUM NOT ACHIEVED WITHIN TOLERANCE.

 AVERAGE HEAT FLUX                  7.635E+10   TIME AVG. HEAT FLUX   4.989E+11
 LARGEST RESIDUAL HEAT FLUX        -2.127E+11   AT NODE      17348   DOF 11
   INSTANCE: PART-1-1                                                                        
 LARGEST INCREMENT OF TEMP.         3.147E+11   AT NODE        645   DOF 11
   INSTANCE: PART-1-1                                                                        
 LARGEST CORRECTION TO TEMP.       -1.402E+11   AT NODE       1122   DOF 11
   INSTANCE: PART-1-1                                                                        
          HEAT FLUX EQUILIBRIUM NOT ACHIEVED WITHIN TOLERANCE.
 
	UNSYMMETRIC NEW DIRECT SPARSE SOLVER RUNNING ON
 	1 HOST x 1 MPI RANK PER HOST x 4 THREADS PER RANK
        NUMBER OF EQUATIONS:  43736
        NUMBER OF RHS:        1
        NUMBER OF FLOPS:      2.157e+09
        SOLVER ELAPSED TIME:  48ms

               CONVERGENCE CHECKS FOR EQUILIBRIUM ITERATION     2


 AVERAGE FORCE                      0.315       TIME AVG. FORCE       7.467E-02
 LARGEST SCALED RESIDUAL FORCE     -1.880E-04   AT NODE       1729   DOF  2
   INSTANCE: PART-1-1                                                                        
  CORRESPONDING RESIDUAL FORCE     -1.880E-04
 LARGEST INCREMENT OF DISP.         4.422E-04   AT NODE      16772   DOF  2
   INSTANCE: PART-1-1                                                                        
 LARGEST CORRECTION TO DISP.        5.135E-08   AT NODE        666   DOF  1
   INSTANCE: PART-1-1                                                                        
          THE FORCE     EQUILIBRIUM EQUATIONS HAVE CONVERGED

 AVERAGE HEAT FLUX                  7.959E+10   TIME AVG. HEAT FLUX   4.991E+11
 LARGEST RESIDUAL HEAT FLUX         1.173E+10   AT NODE      17348   DOF 11
   INSTANCE: PART-1-1                                                                        
 LARGEST INCREMENT OF TEMP.         5.670E+11   AT NODE       1122   DOF 11
   INSTANCE: PART-1-1                                                                        
 LARGEST CORRECTION TO TEMP.        2.544E+11   AT NODE       1298   DOF 11
   INSTANCE: PART-1-1                                                                        
          HEAT FLUX EQUILIBRIUM NOT ACHIEVED WITHIN TOLERANCE.
 
	UNSYMMETRIC NEW DIRECT SPARSE SOLVER RUNNING ON
 	1 HOST x 1 MPI RANK PER HOST x 4 THREADS PER RANK
        NUMBER OF EQUATIONS:  43736
        NUMBER OF RHS:        1
        NUMBER OF FLOPS:      2.157e+09
        SOLVER ELAPSED TIME:  43ms

               CONVERGENCE CHECKS FOR EQUILIBRIUM ITERATION     3


 AVERAGE FORCE                      0.315       TIME AVG. FORCE       7.467E-02
 LARGEST SCALED RESIDUAL FORCE     -7.075E-07   AT NODE       1266   DOF  2
   INSTANCE: PART-1-1                                                                        
  CORRESPONDING RESIDUAL FORCE     -7.075E-07
 LARGEST INCREMENT OF DISP.         4.422E-04   AT NODE      16772   DOF  2
   INSTANCE: PART-1-1                                                                        
 LARGEST CORRECTION TO DISP.        2.966E-09   AT NODE        139   DOF  1
   INSTANCE: PART-1-1                                                                        
          THE FORCE     EQUILIBRIUM EQUATIONS HAVE CONVERGED

 AVERAGE HEAT FLUX                  8.057E+10   TIME AVG. HEAT FLUX   4.991E+11
 LARGEST RESIDUAL HEAT FLUX         7.871E+08   AT NODE       1265   DOF 11
   INSTANCE: PART-1-1                                                                        
 LARGEST INCREMENT OF TEMP.         5.198E+11   AT NODE       1114   DOF 11
   INSTANCE: PART-1-1                                                                        
 LARGEST CORRECTION TO TEMP.       -1.340E+11   AT NODE       1298   DOF 11
   INSTANCE: PART-1-1                                                                        
          TEMP.    CORRECTION TOO LARGE COMPARED TO TEMP.    INCREMENT
 
	UNSYMMETRIC NEW DIRECT SPARSE SOLVER RUNNING ON
 	1 HOST x 1 MPI RANK PER HOST x 4 THREADS PER RANK
        NUMBER OF EQUATIONS:  43736
        NUMBER OF RHS:        1
        NUMBER OF FLOPS:      2.157e+09
        SOLVER ELAPSED TIME:  42ms

               CONVERGENCE CHECKS FOR EQUILIBRIUM ITERATION     4


 AVERAGE FORCE                      0.315       TIME AVG. FORCE       7.467E-02
 LARGEST SCALED RESIDUAL FORCE     -3.638E-09   AT NODE       1729   DOF  2
   INSTANCE: PART-1-1                                                                        
  CORRESPONDING RESIDUAL FORCE     -3.638E-09
 LARGEST INCREMENT OF DISP.         4.422E-04   AT NODE      16772   DOF  2
   INSTANCE: PART-1-1                                                                        
 LARGEST CORRECTION TO DISP.        1.680E-11   AT NODE        347   DOF  1
   INSTANCE: PART-1-1                                                                        
          THE FORCE     EQUILIBRIUM EQUATIONS HAVE CONVERGED

 AVERAGE HEAT FLUX                  8.091E+10   TIME AVG. HEAT FLUX   4.992E+11
 LARGEST RESIDUAL HEAT FLUX         3.993E+07   AT NODE       1266   DOF 11
   INSTANCE: PART-1-1                                                                        
 LARGEST INCREMENT OF TEMP.         5.079E+11   AT NODE       1110   DOF 11
   INSTANCE: PART-1-1                                                                        
 LARGEST CORRECTION TO TEMP.        2.678E+10   AT NODE         84   DOF 11
   INSTANCE: PART-1-1                                                                        
 ESTIMATE OF TEMP.    CORRECTION    1.358E+09
 HEAT FLUX EQUILIB. ACCEPTED BASED ON SMALL RESIDUAL AND ESTIMATED CORRECTION

 MAXIMUM NON-PRESCRIBED INCREMENT IN TEMPERATURE IS   5.079E+11

 ITERATION SUMMARY FOR THE INCREMENT:   4 TOTAL ITERATIONS, OF WHICH
   0 ARE SEVERE DISCONTINUITY ITERATIONS AND  4 ARE EQUILIBRIUM ITERATIONS.

 TIME INCREMENT COMPLETED  1.000E-02,  FRACTION OF STEP COMPLETED  5.020E-02
 STEP TIME COMPLETED       5.020E-02,  TOTAL TIME COMPLETED        5.020E-02


  INCREMENT    16 STARTS. ATTEMPT NUMBER  1, TIME INCREMENT  1.000E-02
 
	UNSYMMETRIC NEW DIRECT SPARSE SOLVER RUNNING ON
 	1 HOST x 1 MPI RANK PER HOST x 4 THREADS PER RANK
        NUMBER OF EQUATIONS:  43736
        NUMBER OF RHS:        1
        NUMBER OF FLOPS:      2.157e+09
        SOLVER ELAPSED TIME:  43ms

               CONVERGENCE CHECKS FOR EQUILIBRIUM ITERATION     1


 AVERAGE FORCE                      0.378       TIME AVG. FORCE       9.364E-02
 LARGEST SCALED RESIDUAL FORCE      1.791E-03   AT NODE       1876   DOF  2
   INSTANCE: PART-1-1                                                                        
  CORRESPONDING RESIDUAL FORCE      1.791E-03
 LARGEST INCREMENT OF DISP.         4.422E-04   AT NODE      16772   DOF  2
   INSTANCE: PART-1-1                                                                        
 LARGEST CORRECTION TO DISP.        5.497E-07   AT NODE        639   DOF  1
   INSTANCE: PART-1-1                                                                        
          FORCE     EQUILIBRIUM NOT ACHIEVED WITHIN TOLERANCE.

 AVERAGE HEAT FLUX                  5.141E+10   TIME AVG. HEAT FLUX   4.712E+11
 LARGEST RESIDUAL HEAT FLUX        -1.488E+11   AT NODE      17348   DOF 11
   INSTANCE: PART-1-1                                                                        
 LARGEST INCREMENT OF TEMP.         3.370E+11   AT NODE       1121   DOF 11
   INSTANCE: PART-1-1                                                                        
 LARGEST CORRECTION TO TEMP.       -1.782E+11   AT NODE       1110   DOF 11
   INSTANCE: PART-1-1                                                                        
          HEAT FLUX EQUILIBRIUM NOT ACHIEVED WITHIN TOLERANCE.
 
	UNSYMMETRIC NEW DIRECT SPARSE SOLVER RUNNING ON
 	1 HOST x 1 MPI RANK PER HOST x 4 THREADS PER RANK
        NUMBER OF EQUATIONS:  43736
        NUMBER OF RHS:        1
        NUMBER OF FLOPS:      2.157e+09
        SOLVER ELAPSED TIME:  42ms

               CONVERGENCE CHECKS FOR EQUILIBRIUM ITERATION     2


 AVERAGE FORCE                      0.378       TIME AVG. FORCE       9.364E-02
 LARGEST SCALED RESIDUAL FORCE     -3.816E-05   AT NODE        466   DOF  1
   INSTANCE: PART-1-1                                                                        
  CORRESPONDING RESIDUAL FORCE     -3.816E-05
 LARGEST INCREMENT OF DISP.         4.422E-04   AT NODE      16772   DOF  2
   INSTANCE: PART-1-1                                                                        
 LARGEST CORRECTION TO DISP.        3.933E-08   AT NODE        352   DOF  1
   INSTANCE: PART-1-1                                                                        
          THE FORCE     EQUILIBRIUM EQUATIONS HAVE CONVERGED

 AVERAGE HEAT FLUX                  5.304E+10   TIME AVG. HEAT FLUX   4.713E+11
 LARGEST RESIDUAL HEAT FLUX         7.389E+09   AT NODE      17348   DOF 11
   INSTANCE: PART-1-1                                                                        
 LARGEST INCREMENT OF TEMP.         6.388E+11   AT NODE       1110   DOF 11
[...]
 	1 HOST x 1 MPI RANK PER HOST x 4 THREADS PER RANK
        NUMBER OF EQUATIONS:  43736
        NUMBER OF RHS:        1
        NUMBER OF FLOPS:      2.157e+09
        SOLVER ELAPSED TIME:  42ms

               CONVERGENCE CHECKS FOR EQUILIBRIUM ITERATION     2


 AVERAGE FORCE                       4.02       TIME AVG. FORCE        1.75    
 LARGEST SCALED RESIDUAL FORCE     -1.572E-05   AT NODE       6744   DOF  2
   INSTANCE: PART-1-1                                                                        
  CORRESPONDING RESIDUAL FORCE     -1.572E-05
 LARGEST INCREMENT OF DISP.         4.422E-04   AT NODE      16772   DOF  2
   INSTANCE: PART-1-1                                                                        
 LARGEST CORRECTION TO DISP.       -3.369E-08   AT NODE       1086   DOF  1
   INSTANCE: PART-1-1                                                                        
          THE FORCE     EQUILIBRIUM EQUATIONS HAVE CONVERGED

 AVERAGE HEAT FLUX                  3.736E+10   TIME AVG. HEAT FLUX   1.242E+11
 LARGEST RESIDUAL HEAT FLUX         6.881E+09   AT NODE      17337   DOF 11
   INSTANCE: PART-1-1                                                                        
 LARGEST INCREMENT OF TEMP.         1.838E+12   AT NODE       2743   DOF 11
   INSTANCE: PART-1-1                                                                        
 LARGEST CORRECTION TO TEMP.        1.330E+12   AT NODE       1219   DOF 11
   INSTANCE: PART-1-1                                                                        
          HEAT FLUX EQUILIBRIUM NOT ACHIEVED WITHIN TOLERANCE.
 
	UNSYMMETRIC NEW DIRECT SPARSE SOLVER RUNNING ON
 	1 HOST x 1 MPI RANK PER HOST x 4 THREADS PER RANK
        NUMBER OF EQUATIONS:  43736
        NUMBER OF RHS:        1
        NUMBER OF FLOPS:      2.157e+09
        SOLVER ELAPSED TIME:  43ms

               CONVERGENCE CHECKS FOR EQUILIBRIUM ITERATION     3


 AVERAGE FORCE                       4.02       TIME AVG. FORCE        1.75    
 LARGEST SCALED RESIDUAL FORCE      7.568E-08   AT NODE       6744   DOF  2
   INSTANCE: PART-1-1                                                                        
  CORRESPONDING RESIDUAL FORCE      7.568E-08
 LARGEST INCREMENT OF DISP.         4.422E-04   AT NODE      16772   DOF  2
   INSTANCE: PART-1-1                                                                        
 LARGEST CORRECTION TO DISP.        6.869E-10   AT NODE        114   DOF  1
   INSTANCE: PART-1-1                                                                        
          THE FORCE     EQUILIBRIUM EQUATIONS HAVE CONVERGED

 AVERAGE HEAT FLUX                  3.688E+10   TIME AVG. HEAT FLUX   1.241E+11
 LARGEST RESIDUAL HEAT FLUX         6.933E+08   AT NODE      17337   DOF 11
   INSTANCE: PART-1-1                                                                        
 LARGEST INCREMENT OF TEMP.         7.128E+11   AT NODE       2772   DOF 11
   INSTANCE: PART-1-1                                                                        
 LARGEST CORRECTION TO TEMP.       -1.418E+12   AT NODE       1135   DOF 11
   INSTANCE: PART-1-1                                                                        
          HEAT FLUX EQUILIBRIUM NOT ACHIEVED WITHIN TOLERANCE.
 
	UNSYMMETRIC NEW DIRECT SPARSE SOLVER RUNNING ON
 	1 HOST x 1 MPI RANK PER HOST x 4 THREADS PER RANK
        NUMBER OF EQUATIONS:  43736
        NUMBER OF RHS:        1
        NUMBER OF FLOPS:      2.157e+09
        SOLVER ELAPSED TIME:  44ms

               CONVERGENCE CHECKS FOR EQUILIBRIUM ITERATION     4


 AVERAGE FORCE                       4.02       TIME AVG. FORCE        1.75    
 LARGEST SCALED RESIDUAL FORCE     -9.934E-10   AT NODE        322   DOF  1
   INSTANCE: PART-1-1                                                                        
  CORRESPONDING RESIDUAL FORCE     -9.934E-10
 LARGEST INCREMENT OF DISP.         4.422E-04   AT NODE      16772   DOF  2
   INSTANCE: PART-1-1                                                                        
 LARGEST CORRECTION TO DISP.       -1.089E-11   AT NODE        110   DOF  1
   INSTANCE: PART-1-1                                                                        
          THE FORCE     EQUILIBRIUM EQUATIONS HAVE CONVERGED

 AVERAGE HEAT FLUX                  3.688E+10   TIME AVG. HEAT FLUX   1.241E+11
 LARGEST RESIDUAL HEAT FLUX         7.379E+07   AT NODE      17250   DOF 11
   INSTANCE: PART-1-1                                                                        
 LARGEST INCREMENT OF TEMP.         7.123E+11   AT NODE       2772   DOF 11
   INSTANCE: PART-1-1                                                                        
 LARGEST CORRECTION TO TEMP.       -3.713E+09   AT NODE       2743   DOF 11
   INSTANCE: PART-1-1                                                                        
          THE HEAT FLUX EQUILIBRIUM EQUATIONS HAVE CONVERGED

 MAXIMUM NON-PRESCRIBED INCREMENT IN TEMPERATURE IS   7.123E+11

 ITERATION SUMMARY FOR THE INCREMENT:   4 TOTAL ITERATIONS, OF WHICH
   0 ARE SEVERE DISCONTINUITY ITERATIONS AND  4 ARE EQUILIBRIUM ITERATIONS.

 TIME INCREMENT COMPLETED  1.000E-02,  FRACTION OF STEP COMPLETED  0.630    
 STEP TIME COMPLETED       0.630    ,  TOTAL TIME COMPLETED        0.630    


  INCREMENT    74 STARTS. ATTEMPT NUMBER  1, TIME INCREMENT  1.000E-02
 
	UNSYMMETRIC NEW DIRECT SPARSE SOLVER RUNNING ON
 	1 HOST x 1 MPI RANK PER HOST x 4 THREADS PER RANK
        NUMBER OF EQUATIONS:  43736
        NUMBER OF RHS:        1
        NUMBER OF FLOPS:      2.157e+09
        SOLVER ELAPSED TIME:  45ms

               CONVERGENCE CHECKS FOR EQUILIBRIUM ITERATION     1


 AVERAGE FORCE                       4.08       TIME AVG. FORCE        1.79    
 LARGEST SCALED RESIDUAL FORCE     -2.369E-03   AT NODE       7252   DOF  2
   INSTANCE: PART-1-1                                                                        
  CORRESPONDING RESIDUAL FORCE     -2.369E-03
 LARGEST INCREMENT OF DISP.         4.422E-04   AT NODE      16772   DOF  2
   INSTANCE: PART-1-1                                                                        
 LARGEST CORRECTION TO DISP.        5.610E-07   AT NODE       1702   DOF  1
   INSTANCE: PART-1-1                                                                        
          THE FORCE     EQUILIBRIUM EQUATIONS HAVE CONVERGED

 AVERAGE HEAT FLUX                  3.745E+10   TIME AVG. HEAT FLUX   1.230E+11
 LARGEST RESIDUAL HEAT FLUX         6.845E+10   AT NODE      17337   DOF 11
   INSTANCE: PART-1-1                                                                        
 LARGEST INCREMENT OF TEMP.         5.406E+11   AT NODE       2743   DOF 11
   INSTANCE: PART-1-1                                                                        
 LARGEST CORRECTION TO TEMP.        2.701E+11   AT NODE       3197   DOF 11
   INSTANCE: PART-1-1                                                                        
          HEAT FLUX EQUILIBRIUM NOT ACHIEVED WITHIN TOLERANCE.
 
	UNSYMMETRIC NEW DIRECT SPARSE SOLVER RUNNING ON
 	1 HOST x 1 MPI RANK PER HOST x 4 THREADS PER RANK
        NUMBER OF EQUATIONS:  43736
        NUMBER OF RHS:        1
        NUMBER OF FLOPS:      2.157e+09
        SOLVER ELAPSED TIME:  53ms

               CONVERGENCE CHECKS FOR EQUILIBRIUM ITERATION     2


 AVERAGE FORCE                       4.08       TIME AVG. FORCE        1.79    
 LARGEST SCALED RESIDUAL FORCE      4.978E-06   AT NODE       6700   DOF  2
   INSTANCE: PART-1-1                                                                        
  CORRESPONDING RESIDUAL FORCE      4.978E-06
 LARGEST INCREMENT OF DISP.         4.422E-04   AT NODE      16772   DOF  2
   INSTANCE: PART-1-1                                                                        
 LARGEST CORRECTION TO DISP.       -3.374E-08   AT NODE        661   DOF  1
   INSTANCE: PART-1-1                                                                        
          THE FORCE     EQUILIBRIUM EQUATIONS HAVE CONVERGED

 AVERAGE HEAT FLUX                  3.773E+10   TIME AVG. HEAT FLUX   1.230E+11
 LARGEST RESIDUAL HEAT FLUX         6.870E+09   AT NODE      17337   DOF 11
   INSTANCE: PART-1-1                                                                        
 LARGEST INCREMENT OF TEMP.         1.821E+12   AT NODE       2743   DOF 11
   INSTANCE: PART-1-1                                                                        
 LARGEST CORRECTION TO TEMP.        1.335E+12   AT NODE       1196   DOF 11
   INSTANCE: PART-1-1                                                                        
          HEAT FLUX EQUILIBRIUM NOT ACHIEVED WITHIN TOLERANCE.
 
	UNSYMMETRIC NEW DIRECT SPARSE SOLVER RUNNING ON
 	1 HOST x 1 MPI RANK PER HOST x 4 THREADS PER RANK
        NUMBER OF EQUATIONS:  43736
        NUMBER OF RHS:        1
        NUMBER OF FLOPS:      2.157e+09
        SOLVER ELAPSED TIME:  54ms

               CONVERGENCE CHECKS FOR EQUILIBRIUM ITERATION     3


 AVERAGE FORCE                       4.08       TIME AVG. FORCE        1.79    
 LARGEST SCALED RESIDUAL FORCE     -2.963E-08   AT NODE        472   DOF  1
   INSTANCE: PART-1-1                                                                        
  CORRESPONDING RESIDUAL FORCE     -2.963E-08
 LARGEST INCREMENT OF DISP.         4.422E-04   AT NODE      16772   DOF  2
   INSTANCE: PART-1-1                                                                        
 LARGEST CORRECTION TO DISP.        7.070E-10   AT NODE        114   DOF  1
   INSTANCE: PART-1-1                                                                        
          THE FORCE     EQUILIBRIUM EQUATIONS HAVE CONVERGED

 AVERAGE HEAT FLUX                  3.731E+10   TIME AVG. HEAT FLUX   1.230E+11
 LARGEST RESIDUAL HEAT FLUX         6.907E+08   AT NODE      17337   DOF 11
   INSTANCE: PART-1-1                                                                        
 LARGEST INCREMENT OF TEMP.         7.216E+11   AT NODE       2772   DOF 11
   INSTANCE: PART-1-1                                                                        
 LARGEST CORRECTION TO TEMP.       -1.427E+12   AT NODE       1135   DOF 11
   INSTANCE: PART-1-1                                                                        
          HEAT FLUX EQUILIBRIUM NOT ACHIEVED WITHIN TOLERANCE.
 
	UNSYMMETRIC NEW DIRECT SPARSE SOLVER RUNNING ON
 	1 HOST x 1 MPI RANK PER HOST x 4 THREADS PER RANK
        NUMBER OF EQUATIONS:  43736
        NUMBER OF RHS:        1
        NUMBER OF FLOPS:      2.157e+09
        SOLVER ELAPSED TIME:  51ms

               CONVERGENCE CHECKS FOR EQUILIBRIUM ITERATION     4


 AVERAGE FORCE                       4.08       TIME AVG. FORCE        1.79    
 LARGEST SCALED RESIDUAL FORCE     -1.098E-09   AT NODE        322   DOF  1
   INSTANCE: PART-1-1                                                                        
  CORRESPONDING RESIDUAL FORCE     -1.098E-09
 LARGEST INCREMENT OF DISP.         4.422E-04   AT NODE      16772   DOF  2
   INSTANCE: PART-1-1                                                                        
 LARGEST CORRECTION TO DISP.       -1.176E-11   AT NODE        110   DOF  1
   INSTANCE: PART-1-1                                                                        
          THE FORCE     EQUILIBRIUM EQUATIONS HAVE CONVERGED

 AVERAGE HEAT FLUX                  3.731E+10   TIME AVG. HEAT FLUX   1.230E+11
 LARGEST RESIDUAL HEAT FLUX         6.954E+07   AT NODE      17337   DOF 11
   INSTANCE: PART-1-1                                                                        
 LARGEST INCREMENT OF TEMP.         7.207E+11   AT NODE       2772   DOF 11
   INSTANCE: PART-1-1                                                                        
 LARGEST CORRECTION TO TEMP.       -4.051E+09   AT NODE       2743   DOF 11
   INSTANCE: PART-1-1                                                                        
          THE HEAT FLUX EQUILIBRIUM EQUATIONS HAVE CONVERGED

 MAXIMUM NON-PRESCRIBED INCREMENT IN TEMPERATURE IS   7.207E+11

 ITERATION SUMMARY FOR THE INCREMENT:   4 TOTAL ITERATIONS, OF WHICH
   0 ARE SEVERE DISCONTINUITY ITERATIONS AND  4 ARE EQUILIBRIUM ITERATIONS.

 TIME INCREMENT COMPLETED  1.000E-02,  FRACTION OF STEP COMPLETED  0.640    
 STEP TIME COMPLETED       0.640    ,  TOTAL TIME COMPLETED        0.640    


  INCREMENT    75 STARTS. ATTEMPT NUMBER  1, TIME INCREMENT  1.000E-02
 
	UNSYMMETRIC NEW DIRECT SPARSE SOLVER RUNNING ON
 	1 HOST x 1 MPI RANK PER HOST x 4 THREADS PER RANK
        NUMBER OF EQUATIONS:  43736
        NUMBER OF RHS:        1
        NUMBER OF FLOPS:      2.157e+09
        SOLVER ELAPSED TIME:  46ms

               CONVERGENCE CHECKS FOR EQUILIBRIUM ITERATION     1


 AVERAGE FORCE                       4.14       TIME AVG. FORCE        1.82    
 LARGEST SCALED RESIDUAL FORCE      3.117E-03   AT NODE       8225   DOF  2
   INSTANCE: PART-1-1                                                                        
  CORRESPONDING RESIDUAL FORCE      3.117E-03
 LARGEST INCREMENT OF DISP.         4.422E-04   AT NODE      16772   DOF  2
   INSTANCE: PART-1-1                                                                        
 LARGEST CORRECTION TO DISP.        5.650E-07   AT NODE       1677   DOF  1
   INSTANCE: PART-1-1                                                                        
          THE FORCE     EQUILIBRIUM EQUATIONS HAVE CONVERGED

 AVERAGE HEAT FLUX                  3.787E+10   TIME AVG. HEAT FLUX   1.218E+11
 LARGEST RESIDUAL HEAT FLUX         6.753E+10   AT NODE      17337   DOF 11
   INSTANCE: PART-1-1                                                                        
 LARGEST INCREMENT OF TEMP.         5.395E+11   AT NODE       2743   DOF 11
   INSTANCE: PART-1-1                                                                        
 LARGEST CORRECTION TO TEMP.        2.728E+11   AT NODE       2795   DOF 11
   INSTANCE: PART-1-1                                                                        
          HEAT FLUX EQUILIBRIUM NOT ACHIEVED WITHIN TOLERANCE.
 
	UNSYMMETRIC NEW DIRECT SPARSE SOLVER RUNNING ON
 	1 HOST x 1 MPI RANK PER HOST x 4 THREADS PER RANK
        NUMBER OF EQUATIONS:  43736
        NUMBER OF RHS:        1
        NUMBER OF FLOPS:      2.157e+09
        SOLVER ELAPSED TIME:  49ms

               CONVERGENCE CHECKS FOR EQUILIBRIUM ITERATION     2


 AVERAGE FORCE                       4.14       TIME AVG. FORCE        1.82    
 LARGEST SCALED RESIDUAL FORCE     -2.165E-06   AT NODE       8225   DOF  2
   INSTANCE: PART-1-1                                                                        
  CORRESPONDING RESIDUAL FORCE     -2.165E-06
 LARGEST INCREMENT OF DISP.         4.422E-04   AT NODE      16772   DOF  2
   INSTANCE: PART-1-1                                                                        
 LARGEST CORRECTION TO DISP.       -3.547E-08   AT NODE       1086   DOF  1
   INSTANCE: PART-1-1                                                                        
          THE FORCE     EQUILIBRIUM EQUATIONS HAVE CONVERGED

 AVERAGE HEAT FLUX                  3.816E+10   TIME AVG. HEAT FLUX   1.218E+11
 LARGEST RESIDUAL HEAT FLUX         6.724E+09   AT NODE      17337   DOF 11
   INSTANCE: PART-1-1                                                                        
 LARGEST INCREMENT OF TEMP.         1.808E+12   AT NODE       2772   DOF 11
   INSTANCE: PART-1-1                                                                        
 LARGEST CORRECTION TO TEMP.        1.356E+12   AT NODE       1196   DOF 11
   INSTANCE: PART-1-1                                                                        
          HEAT FLUX EQUILIBRIUM NOT ACHIEVED WITHIN TOLERANCE.
 
	UNSYMMETRIC NEW DIRECT SPARSE SOLVER RUNNING ON
 	1 HOST x 1 MPI RANK PER HOST x 4 THREADS PER RANK
        NUMBER OF EQUATIONS:  43736
        NUMBER OF RHS:        1
        NUMBER OF FLOPS:      2.157e+09
        SOLVER ELAPSED TIME:  47ms

               CONVERGENCE CHECKS FOR EQUILIBRIUM ITERATION     3


 AVERAGE FORCE                       4.14       TIME AVG. FORCE        1.82    
 LARGEST SCALED RESIDUAL FORCE     -3.068E-08   AT NODE        472   DOF  1
   INSTANCE: PART-1-1                                                                        
  CORRESPONDING RESIDUAL FORCE     -3.068E-08
 LARGEST INCREMENT OF DISP.         4.422E-04   AT NODE      16772   DOF  2
   INSTANCE: PART-1-1                                                                        
 LARGEST CORRECTION TO DISP.        7.390E-10   AT NODE        347   DOF  1
   INSTANCE: PART-1-1                                                                        
          THE FORCE     EQUILIBRIUM EQUATIONS HAVE CONVERGED

 AVERAGE HEAT FLUX                  3.774E+10   TIME AVG. HEAT FLUX   1.218E+11
 LARGEST RESIDUAL HEAT FLUX         6.713E+08   AT NODE      17337   DOF 11
   INSTANCE: PART-1-1                                                                        
 LARGEST INCREMENT OF TEMP.         7.231E+11   AT NODE       2772   DOF 11
   INSTANCE: PART-1-1                                                                        
 LARGEST CORRECTION TO TEMP.       -1.434E+12   AT NODE       1135   DOF 11
   INSTANCE: PART-1-1                                                                        
          HEAT FLUX EQUILIBRIUM NOT ACHIEVED WITHIN TOLERANCE.
 
	UNSYMMETRIC NEW DIRECT SPARSE SOLVER RUNNING ON
 	1 HOST x 1 MPI RANK PER HOST x 4 THREADS PER RANK
        NUMBER OF EQUATIONS:  43736
        NUMBER OF RHS:        1
        NUMBER OF FLOPS:      2.157e+09
        SOLVER ELAPSED TIME:  48ms

               CONVERGENCE CHECKS FOR EQUILIBRIUM ITERATION     4


 AVERAGE FORCE                       4.14       TIME AVG. FORCE        1.82    
 LARGEST SCALED RESIDUAL FORCE     -1.182E-09   AT NODE        322   DOF  1
   INSTANCE: PART-1-1                                                                        
  CORRESPONDING RESIDUAL FORCE     -1.182E-09
 LARGEST INCREMENT OF DISP.         4.422E-04   AT NODE      16772   DOF  2
   INSTANCE: PART-1-1                                                                        
 LARGEST CORRECTION TO DISP.       -1.211E-11   AT NODE        110   DOF  1
   INSTANCE: PART-1-1                                                                        
          THE FORCE     EQUILIBRIUM EQUATIONS HAVE CONVERGED

 AVERAGE HEAT FLUX                  3.774E+10   TIME AVG. HEAT FLUX   1.218E+11
 LARGEST RESIDUAL HEAT FLUX         6.713E+07   AT NODE      17337   DOF 11
   INSTANCE: PART-1-1                                                                        
 LARGEST INCREMENT OF TEMP.         7.217E+11   AT NODE       2772   DOF 11
   INSTANCE: PART-1-1                                                                        
 LARGEST CORRECTION TO TEMP.       -4.061E+09   AT NODE       2743   DOF 11
   INSTANCE: PART-1-1                                                                        
          THE HEAT FLUX EQUILIBRIUM EQUATIONS HAVE CONVERGED

 MAXIMUM NON-PRESCRIBED INCREMENT IN TEMPERATURE IS   7.217E+11

 ITERATION SUMMARY FOR THE INCREMENT:   4 TOTAL ITERATIONS, OF WHICH
   0 ARE SEVERE DISCONTINUITY ITERATIONS AND  4 ARE EQUILIBRIUM ITERATIONS.

 TIME INCREMENT COMPLETED  1.000E-02,  FRACTION OF STEP COMPLETED  0.650    
 STEP TIME COMPLETED       0.650    ,  TOTAL TIME COMPLETED        0.650    


  INCREMENT    76 STARTS. ATTEMPT NUMBER  1, TIME INCREMENT  1.000E-02
 
	UNSYMMETRIC NEW DIRECT SPARSE SOLVER RUNNING ON
 	1 HOST x 1 MPI RANK PER HOST x 4 THREADS PER RANK
        NUMBER OF EQUATIONS:  43736
        NUMBER OF RHS:        1
        NUMBER OF FLOPS:      2.157e+09
        SOLVER ELAPSED TIME:  42ms

----------- JOB HAS BEEN INTERRUPTED  --------------
*** ABAQUS/standard has been terminated by the Batch Queue Management
