1

   Abaqus 2024                                  Date 24-Feb-2025   Time 17:37:50
   For use by UNIVERSITY OF WYOMING under license from Dassault Systemes or its subsidiary.

 OneFifthMesh-periodic                                                           
                                                                                 
 STEP    1     INCREMENT     1     STEP TIME    0.00    


                        S T E P       1     S T A T I C   A N A L Y S I S


                                                                                          

     AUTOMATIC TIME CONTROL WITH -
          A SUGGESTED INITIAL TIME INCREMENT OF                1.000E-06
          AND A TOTAL TIME PERIOD OF                            1.00    
          THE MINIMUM TIME INCREMENT ALLOWED IS                1.000E-07
          THE MAXIMUM TIME INCREMENT ALLOWED IS                5.000E-03

     LINEAR EQUATION SOLVER TYPE         DIRECT SPARSE

 CONVERGENCE TOLERANCE PARAMETERS FOR FORCE    
     CRITERION FOR RESIDUAL FORCE     FOR A NONLINEAR PROBLEM          5.000E-03
     CRITERION FOR DISP.    CORRECTION IN A NONLINEAR PROBLEM          1.000E-02
     INITIAL VALUE OF TIME AVERAGE FORCE                               1.000E-02
     AVERAGE FORCE     IS TIME AVERAGE FORCE    
     ALTERNATE CRIT. FOR RESIDUAL FORCE     FOR A NONLINEAR PROBLEM    2.000E-02
     CRITERION FOR ZERO FORCE     RELATIVE TO TIME AVRG. FORCE         1.000E-05
     CRITERION FOR RESIDUAL FORCE     WHEN THERE IS ZERO FLUX          1.000E-05
     CRITERION FOR DISP.    CORRECTION WHEN THERE IS ZERO FLUX         1.000E-03
     CRITERION FOR RESIDUAL FORCE     FOR A LINEAR INCREMENT           1.000E-08
     FIELD CONVERSION RATIO                                             1.00    
     CRITERION FOR ZERO FORCE     REL. TO TIME AVRG. MAX. FORCE        1.000E-05
     CRITERION FOR ZERO DISP.    RELATIVE TO CHARACTERISTIC LENGTH     1.000E-08

     VOLUMETRIC STRAIN COMPATIBILITY TOLERANCE FOR HYBRID SOLIDS       1.000E-05
     AXIAL STRAIN COMPATIBILITY TOLERANCE FOR HYBRID BEAMS             1.000E-05
     TRANS. SHEAR STRAIN COMPATIBILITY TOLERANCE FOR HYBRID BEAMS      1.000E-05
     SOFT CONTACT CONSTRAINT COMPATIBILITY TOLERANCE FOR P>P0          5.000E-03
     SOFT CONTACT CONSTRAINT COMPATIBILITY TOLERANCE FOR P=0.0         0.100    
     CONTACT FORCE ERROR TOLERANCE FOR CONVERT SDI=YES                 1.00    
     DISPLACEMENT COMPATIBILITY TOLERANCE FOR DCOUP ELEMENTS           1.000E-05
     ROTATION COMPATIBILITY TOLERANCE FOR DCOUP ELEMENTS               1.000E-05

 EQUILIBRIUM WILL BE CHECKED FOR SEVERE DISCONTINUITY ITERATIONS

 TIME INCREMENTATION CONTROL PARAMETERS:
     FIRST EQUILIBRIUM ITERATION FOR CONSECUTIVE DIVERGENCE CHECK              4
     EQUILIBRIUM ITERATION AT WHICH LOG. CONVERGENCE RATE CHECK BEGINS         8
     EQUILIBRIUM ITERATION AFTER WHICH ALTERNATE RESIDUAL IS USED              9
     MAXIMUM EQUILIBRIUM ITERATIONS ALLOWED                                   16
     EQUILIBRIUM ITERATION COUNT FOR CUT-BACK IN NEXT INCREMENT               10
     MAXIMUM EQUILIB. ITERS IN TWO INCREMENTS FOR TIME INCREMENT INCREASE      4
     MAXIMUM ITERATIONS FOR SEVERE DISCONTINUITIES                            50
     MAXIMUM ATTEMPTS ALLOWED IN AN INCREMENT                                  5
     MAXIMUM DISCON. ITERS IN TWO INCREMENTS FOR TIME INCREMENT INCREASE      50
     MAXIMUM CONTACT AUGMENTATIONS FOR *SURFACE BEHAVIOR,AUGMENTED LAGRANGE   50
     CUT-BACK FACTOR AFTER DIVERGENCE                                 0.2500    
     CUT-BACK FACTOR FOR TOO SLOW CONVERGENCE                         0.5000    
     CUT-BACK FACTOR AFTER TOO MANY EQUILIBRIUM ITERATIONS            0.7500    
     CUT-BACK FACTOR AFTER TOO MANY SEVERE DISCONTINUITY ITERATIONS   0.2500    
     CUT-BACK FACTOR AFTER PROBLEMS IN ELEMENT ASSEMBLY               0.2500    
     INCREASE FACTOR AFTER TWO INCREMENTS THAT CONVERGE QUICKLY        1.500    
     MAX. TIME INCREMENT INCREASE FACTOR ALLOWED                       1.500    
     MAX. TIME INCREMENT INCREASE FACTOR ALLOWED (DYNAMICS)            1.250    
     MAX. TIME INCREMENT INCREASE FACTOR ALLOWED (DIFFUSION)           2.000    
     MINIMUM TIME INCREMENT RATIO FOR EXTRAPOLATION TO OCCUR          0.1000    
     MAX. RATIO OF TIME INCREMENT TO STABILITY LIMIT                   1.000    
     FRACTION OF STABILITY LIMIT FOR NEW TIME INCREMENT               0.9500    
     TIME INCREMENT INCREASE FACTOR BEFORE A TIME POINT                1.000    
     GLOBAL STABILIZATION CONTROL IS NOT USED

          PRINT OF INCREMENT NUMBER, TIME, ETC., EVERY    1  INCREMENTS

     THE MAXIMUM NUMBER OF INCREMENTS IN THIS STEP IS                   10000

          LARGE DISPLACEMENT THEORY WILL BE USED

     LINEAR EXTRAPOLATION WILL BE USED

     CHARACTERISTIC ELEMENT LENGTH     0.142    

     DETAILS REGARDING ACTUAL SOLUTION WAVEFRONT REQUESTED

     DETAILED OUTPUT OF DIAGNOSTICS TO DATABASE REQUESTED

     PRINT OF INCREMENT NUMBER, TIME, ETC., TO THE MESSAGE FILE EVERY     1  INCREMENTS

     COLLECTING MODEL CONSTRAINT INFORMATION FOR OVERCONSTRAINT CHECKS

     COLLECTING STEP CONSTRAINT INFORMATION FOR OVERCONSTRAINT CHECKS


  INCREMENT     1 STARTS. ATTEMPT NUMBER  1, TIME INCREMENT  1.000E-06
 
	SYMMETRIC NEW DIRECT SPARSE SOLVER RUNNING ON
 	1 HOST x 1 MPI RANK PER HOST x 1 THREAD PER RANK
        NUMBER OF EQUATIONS:  5043
        NUMBER OF RHS:        1
        NUMBER OF FLOPS:      2.904e+08
        SOLVER ELAPSED TIME:  27ms

               CONVERGENCE CHECKS FOR EQUILIBRIUM ITERATION     1


 AVERAGE FORCE                      2.906E-09   TIME AVG. FORCE       1.000E-02
 LARGEST SCALED RESIDUAL FORCE     -2.176E-15   AT NODE        592   DOF  3
   INSTANCE: PART-1-1                                                                        
  CORRESPONDING RESIDUAL FORCE     -2.176E-15
 LARGEST INCREMENT OF DISP.         5.000E-08   AT NODE         13   DOF  1
   INSTANCE: PART-1-1                                                                        
 LARGEST CORRECTION TO DISP.        5.000E-08   AT NODE         13   DOF  1
   INSTANCE: PART-1-1                                                                        
          THERE IS ZERO FORCE     EVERYWHERE
 

 ***WARNING: THERE IS ZERO FORCE EVERYWHERE IN THE MODEL BASED ON THE DEFAULT 
             CRITERION. PLEASE CHECK THE VALUE OF THE AVERAGE FORCE DURING THE 
             CURRENT ITERATION TO VERIFY THAT THE FORCE IS SMALL ENOUGH TO BE 
             TREATED AS ZERO. IF NOT, PLEASE USE THE SOLUTION CONTROLS TO RESET 
             THE CRITERION FOR ZERO FORCE.

 ITERATION SUMMARY FOR THE INCREMENT:   1 TOTAL ITERATIONS, OF WHICH
   0 ARE SEVERE DISCONTINUITY ITERATIONS AND  1 ARE EQUILIBRIUM ITERATIONS.

 TIME INCREMENT COMPLETED  1.000E-06,  FRACTION OF STEP COMPLETED  1.000E-06
 STEP TIME COMPLETED       1.000E-06,  TOTAL TIME COMPLETED        1.000E-06


  INCREMENT     2 STARTS. ATTEMPT NUMBER  1, TIME INCREMENT  1.000E-06
 
	SYMMETRIC NEW DIRECT SPARSE SOLVER RUNNING ON
 	1 HOST x 1 MPI RANK PER HOST x 1 THREAD PER RANK
        NUMBER OF EQUATIONS:  5043
        NUMBER OF RHS:        1
        NUMBER OF FLOPS:      2.904e+08
        SOLVER ELAPSED TIME:  18ms

               CONVERGENCE CHECKS FOR EQUILIBRIUM ITERATION     1


 AVERAGE FORCE                      5.811E-09   TIME AVG. FORCE       1.000E-02
 LARGEST SCALED RESIDUAL FORCE      9.260E-22   AT NODE       1611   DOF  1
   INSTANCE: PART-1-1                                                                        
  CORRESPONDING RESIDUAL FORCE      9.260E-22
 LARGEST INCREMENT OF DISP.         5.000E-08   AT NODE         13   DOF  1
   INSTANCE: PART-1-1                                                                        
 LARGEST CORRECTION TO DISP.        7.385E-15   AT NODE        224   DOF  2
   INSTANCE: PART-1-1                                                                        
          THERE IS ZERO FORCE     EVERYWHERE
 

 ***WARNING: THERE IS ZERO FORCE EVERYWHERE IN THE MODEL BASED ON THE DEFAULT 
             CRITERION. PLEASE CHECK THE VALUE OF THE AVERAGE FORCE DURING THE 
             CURRENT ITERATION TO VERIFY THAT THE FORCE IS SMALL ENOUGH TO BE 
             TREATED AS ZERO. IF NOT, PLEASE USE THE SOLUTION CONTROLS TO RESET 
             THE CRITERION FOR ZERO FORCE.
          TIME INCREMENT MAY NOW INCREASE TO    1.500E-06

 ITERATION SUMMARY FOR THE INCREMENT:   1 TOTAL ITERATIONS, OF WHICH
   0 ARE SEVERE DISCONTINUITY ITERATIONS AND  1 ARE EQUILIBRIUM ITERATIONS.

 TIME INCREMENT COMPLETED  1.000E-06,  FRACTION OF STEP COMPLETED  2.000E-06
 STEP TIME COMPLETED       2.000E-06,  TOTAL TIME COMPLETED        2.000E-06


  INCREMENT     3 STARTS. ATTEMPT NUMBER  1, TIME INCREMENT  1.500E-06
 
	SYMMETRIC NEW DIRECT SPARSE SOLVER RUNNING ON
 	1 HOST x 1 MPI RANK PER HOST x 1 THREAD PER RANK
        NUMBER OF EQUATIONS:  5043
        NUMBER OF RHS:        1
        NUMBER OF FLOPS:      2.904e+08
        SOLVER ELAPSED TIME:  17ms

               CONVERGENCE CHECKS FOR EQUILIBRIUM ITERATION     1


 AVERAGE FORCE                      1.017E-08   TIME AVG. FORCE       1.000E-02
 LARGEST SCALED RESIDUAL FORCE      1.568E-21   AT NODE       1268   DOF  1
   INSTANCE: PART-1-1                                                                        
  CORRESPONDING RESIDUAL FORCE      1.568E-21
 LARGEST INCREMENT OF DISP.         7.500E-08   AT NODE         13   DOF  1
   INSTANCE: PART-1-1                                                                        
 LARGEST CORRECTION TO DISP.        2.467E-15   AT NODE        216   DOF  2
   INSTANCE: PART-1-1                                                                        
          THERE IS ZERO FORCE     EVERYWHERE
 

 ***WARNING: THERE IS ZERO FORCE EVERYWHERE IN THE MODEL BASED ON THE DEFAULT 
             CRITERION. PLEASE CHECK THE VALUE OF THE AVERAGE FORCE DURING THE 
             CURRENT ITERATION TO VERIFY THAT THE FORCE IS SMALL ENOUGH TO BE 
             TREATED AS ZERO. IF NOT, PLEASE USE THE SOLUTION CONTROLS TO RESET 
             THE CRITERION FOR ZERO FORCE.
          TIME INCREMENT MAY NOW INCREASE TO    2.250E-06

 ITERATION SUMMARY FOR THE INCREMENT:   1 TOTAL ITERATIONS, OF WHICH
   0 ARE SEVERE DISCONTINUITY ITERATIONS AND  1 ARE EQUILIBRIUM ITERATIONS.

 TIME INCREMENT COMPLETED  1.500E-06,  FRACTION OF STEP COMPLETED  3.500E-06
 STEP TIME COMPLETED       3.500E-06,  TOTAL TIME COMPLETED        3.500E-06


  INCREMENT     4 STARTS. ATTEMPT NUMBER  1, TIME INCREMENT  2.250E-06
 
	SYMMETRIC NEW DIRECT SPARSE SOLVER RUNNING ON
 	1 HOST x 1 MPI RANK PER HOST x 1 THREAD PER RANK
        NUMBER OF EQUATIONS:  5043
        NUMBER OF RHS:        1
        NUMBER OF FLOPS:      2.904e+08
        SOLVER ELAPSED TIME:  18ms

               CONVERGENCE CHECKS FOR EQUILIBRIUM ITERATION     1


 AVERAGE FORCE                      1.671E-08   TIME AVG. FORCE       1.000E-02
 LARGEST SCALED RESIDUAL FORCE      2.362E-21   AT NODE       1512   DOF  1
   INSTANCE: PART-1-1                                                                        
  CORRESPONDING RESIDUAL FORCE      2.362E-21
 LARGEST INCREMENT OF DISP.         1.125E-07   AT NODE         13   DOF  1
   INSTANCE: PART-1-1                                                                        
 LARGEST CORRECTION TO DISP.        1.397E-14   AT NODE        224   DOF  2
   INSTANCE: PART-1-1                                                                        
          THERE IS ZERO FORCE     EVERYWHERE
 

 ***WARNING: THERE IS ZERO FORCE EVERYWHERE IN THE MODEL BASED ON THE DEFAULT 
             CRITERION. PLEASE CHECK THE VALUE OF THE AVERAGE FORCE DURING THE 
             CURRENT ITERATION TO VERIFY THAT THE FORCE IS SMALL ENOUGH TO BE 
             TREATED AS ZERO. IF NOT, PLEASE USE THE SOLUTION CONTROLS TO RESET 
             THE CRITERION FOR ZERO FORCE.
          TIME INCREMENT MAY NOW INCREASE TO    3.375E-06

 ITERATION SUMMARY FOR THE INCREMENT:   1 TOTAL ITERATIONS, OF WHICH
   0 ARE SEVERE DISCONTINUITY ITERATIONS AND  1 ARE EQUILIBRIUM ITERATIONS.

 TIME INCREMENT COMPLETED  2.250E-06,  FRACTION OF STEP COMPLETED  5.750E-06
 STEP TIME COMPLETED       5.750E-06,  TOTAL TIME COMPLETED        5.750E-06


  INCREMENT     5 STARTS. ATTEMPT NUMBER  1, TIME INCREMENT  3.375E-06
 
	SYMMETRIC NEW DIRECT SPARSE SOLVER RUNNING ON
 	1 HOST x 1 MPI RANK PER HOST x 1 THREAD PER RANK
        NUMBER OF EQUATIONS:  5043
        NUMBER OF RHS:        1
        NUMBER OF FLOPS:      2.904e+08
        SOLVER ELAPSED TIME:  18ms

               CONVERGENCE CHECKS FOR EQUILIBRIUM ITERATION     1


 AVERAGE FORCE                      2.651E-08   TIME AVG. FORCE       1.000E-02
 LARGEST SCALED RESIDUAL FORCE      3.870E-21   AT NODE       1269   DOF  2
   INSTANCE: PART-1-1                                                                        
  CORRESPONDING RESIDUAL FORCE      3.870E-21
 LARGEST INCREMENT OF DISP.         1.688E-07   AT NODE         13   DOF  1
   INSTANCE: PART-1-1                                                                        
 LARGEST CORRECTION TO DISP.        3.143E-14   AT NODE        224   DOF  2
   INSTANCE: PART-1-1                                                                        
          THERE IS ZERO FORCE     EVERYWHERE
 

 ***WARNING: THERE IS ZERO FORCE EVERYWHERE IN THE MODEL BASED ON THE DEFAULT 
             CRITERION. PLEASE CHECK THE VALUE OF THE AVERAGE FORCE DURING THE 
             CURRENT ITERATION TO VERIFY THAT THE FORCE IS SMALL ENOUGH TO BE 
             TREATED AS ZERO. IF NOT, PLEASE USE THE SOLUTION CONTROLS TO RESET 
             THE CRITERION FOR ZERO FORCE.
          TIME INCREMENT MAY NOW INCREASE TO    5.062E-06

 ITERATION SUMMARY FOR THE INCREMENT:   1 TOTAL ITERATIONS, OF WHICH
   0 ARE SEVERE DISCONTINUITY ITERATIONS AND  1 ARE EQUILIBRIUM ITERATIONS.

 TIME INCREMENT COMPLETED  3.375E-06,  FRACTION OF STEP COMPLETED  9.125E-06
 STEP TIME COMPLETED       9.125E-06,  TOTAL TIME COMPLETED        9.125E-06


  INCREMENT     6 STARTS. ATTEMPT NUMBER  1, TIME INCREMENT  5.062E-06
 
	SYMMETRIC NEW DIRECT SPARSE SOLVER RUNNING ON
 	1 HOST x 1 MPI RANK PER HOST x 1 THREAD PER RANK
        NUMBER OF EQUATIONS:  5043
        NUMBER OF RHS:        1
        NUMBER OF FLOPS:      2.904e+08
        SOLVER ELAPSED TIME:  17ms

               CONVERGENCE CHECKS FOR EQUILIBRIUM ITERATION     1


 AVERAGE FORCE                      4.122E-08   TIME AVG. FORCE       1.000E-02
 LARGEST SCALED RESIDUAL FORCE      1.266E-20   AT NODE       1269   DOF  2
   INSTANCE: PART-1-1                                                                        
  CORRESPONDING RESIDUAL FORCE      1.266E-20
 LARGEST INCREMENT OF DISP.         2.531E-07   AT NODE         13   DOF  1
   INSTANCE: PART-1-1                                                                        
 LARGEST CORRECTION TO DISP.        7.073E-14   AT NODE        224   DOF  2
   INSTANCE: PART-1-1                                                                        
          THERE IS ZERO FORCE     EVERYWHERE
 

 ***WARNING: THERE IS ZERO FORCE EVERYWHERE IN THE MODEL BASED ON THE DEFAULT 
             CRITERION. PLEASE CHECK THE VALUE OF THE AVERAGE FORCE DURING THE 
             CURRENT ITERATION TO VERIFY THAT THE FORCE IS SMALL ENOUGH TO BE 
             TREATED AS ZERO. IF NOT, PLEASE USE THE SOLUTION CONTROLS TO RESET 
             THE CRITERION FOR ZERO FORCE.
          TIME INCREMENT MAY NOW INCREASE TO    7.594E-06

 ITERATION SUMMARY FOR THE INCREMENT:   1 TOTAL ITERATIONS, OF WHICH
   0 ARE SEVERE DISCONTINUITY ITERATIONS AND  1 ARE EQUILIBRIUM ITERATIONS.

 TIME INCREMENT COMPLETED  5.062E-06,  FRACTION OF STEP COMPLETED  1.419E-05
 STEP TIME COMPLETED       1.419E-05,  TOTAL TIME COMPLETED        1.419E-05


  INCREMENT     7 STARTS. ATTEMPT NUMBER  1, TIME INCREMENT  7.594E-06
 
	SYMMETRIC NEW DIRECT SPARSE SOLVER RUNNING ON
 	1 HOST x 1 MPI RANK PER HOST x 1 THREAD PER RANK
        NUMBER OF EQUATIONS:  5043
        NUMBER OF RHS:        1
        NUMBER OF FLOPS:      2.904e+08
        SOLVER ELAPSED TIME:  18ms

               CONVERGENCE CHECKS FOR EQUILIBRIUM ITERATION     1


 AVERAGE FORCE                      6.329E-08   TIME AVG. FORCE       1.000E-02
 LARGEST SCALED RESIDUAL FORCE      4.320E-20   AT NODE       1269   DOF  2
   INSTANCE: PART-1-1                                                                        
  CORRESPONDING RESIDUAL FORCE      4.320E-20
 LARGEST INCREMENT OF DISP.         3.797E-07   AT NODE         13   DOF  1
   INSTANCE: PART-1-1                                                                        
 LARGEST CORRECTION TO DISP.        1.591E-13   AT NODE        224   DOF  2
   INSTANCE: PART-1-1                                                                        
          THERE IS ZERO FORCE     EVERYWHERE
 

 ***WARNING: THERE IS ZERO FORCE EVERYWHERE IN THE MODEL BASED ON THE DEFAULT 
             CRITERION. PLEASE CHECK THE VALUE OF THE AVERAGE FORCE DURING THE 
             CURRENT ITERATION TO VERIFY THAT THE FORCE IS SMALL ENOUGH TO BE 
             TREATED AS ZERO. IF NOT, PLEASE USE THE SOLUTION CONTROLS TO RESET 
             THE CRITERION FOR ZERO FORCE.
          TIME INCREMENT MAY NOW INCREASE TO    1.139E-05

 ITERATION SUMMARY FOR THE INCREMENT:   1 TOTAL ITERATIONS, OF WHICH
   0 ARE SEVERE DISCONTINUITY ITERATIONS AND  1 ARE EQUILIBRIUM ITERATIONS.

 TIME INCREMENT COMPLETED  7.594E-06,  FRACTION OF STEP COMPLETED  2.178E-05
 STEP TIME COMPLETED       2.178E-05,  TOTAL TIME COMPLETED        2.178E-05


  INCREMENT     8 STARTS. ATTEMPT NUMBER  1, TIME INCREMENT  1.139E-05
 
	SYMMETRIC NEW DIRECT SPARSE SOLVER RUNNING ON
 	1 HOST x 1 MPI RANK PER HOST x 1 THREAD PER RANK
        NUMBER OF EQUATIONS:  5043
        NUMBER OF RHS:        1
        NUMBER OF FLOPS:      2.904e+08
        SOLVER ELAPSED TIME:  17ms

               CONVERGENCE CHECKS FOR EQUILIBRIUM ITERATION     1


 AVERAGE FORCE                      9.638E-08   TIME AVG. FORCE       1.000E-02
 LARGEST SCALED RESIDUAL FORCE      1.450E-19   AT NODE       1269   DOF  2
   INSTANCE: PART-1-1                                                                        
  CORRESPONDING RESIDUAL FORCE      1.450E-19
 LARGEST INCREMENT OF DISP.         5.695E-07   AT NODE         13   DOF  1
   INSTANCE: PART-1-1                                                                        
 LARGEST CORRECTION TO DISP.        3.581E-13   AT NODE        224   DOF  2
   INSTANCE: PART-1-1                                                                        
          THERE IS ZERO FORCE     EVERYWHERE
 

 ***WARNING: THERE IS ZERO FORCE EVERYWHERE IN THE MODEL BASED ON THE DEFAULT 
             CRITERION. PLEASE CHECK THE VALUE OF THE AVERAGE FORCE DURING THE 
             CURRENT ITERATION TO VERIFY THAT THE FORCE IS SMALL ENOUGH TO BE 
             TREATED AS ZERO. IF NOT, PLEASE USE THE SOLUTION CONTROLS TO RESET 
             THE CRITERION FOR ZERO FORCE.
          TIME INCREMENT MAY NOW INCREASE TO    1.709E-05

 ITERATION SUMMARY FOR THE INCREMENT:   1 TOTAL ITERATIONS, OF WHICH
   0 ARE SEVERE DISCONTINUITY ITERATIONS AND  1 ARE EQUILIBRIUM ITERATIONS.

 TIME INCREMENT COMPLETED  1.139E-05,  FRACTION OF STEP COMPLETED  3.317E-05
 STEP TIME COMPLETED       3.317E-05,  TOTAL TIME COMPLETED        3.317E-05


  INCREMENT     9 STARTS. ATTEMPT NUMBER  1, TIME INCREMENT  1.709E-05
 
	SYMMETRIC NEW DIRECT SPARSE SOLVER RUNNING ON
 	1 HOST x 1 MPI RANK PER HOST x 1 THREAD PER RANK
        NUMBER OF EQUATIONS:  5043
        NUMBER OF RHS:        1
        NUMBER OF FLOPS:      2.904e+08
        SOLVER ELAPSED TIME:  17ms

               CONVERGENCE CHECKS FOR EQUILIBRIUM ITERATION     1


 AVERAGE FORCE                      1.460E-07   TIME AVG. FORCE       1.460E-07
 LARGEST SCALED RESIDUAL FORCE      4.893E-19   AT NODE       1269   DOF  2
   INSTANCE: PART-1-1                                                                        
  CORRESPONDING RESIDUAL FORCE      4.893E-19
 LARGEST INCREMENT OF DISP.         8.543E-07   AT NODE         13   DOF  1
   INSTANCE: PART-1-1                                                                        
 LARGEST CORRECTION TO DISP.        8.056E-13   AT NODE        224   DOF  2
   INSTANCE: PART-1-1                                                                        
          THE FORCE     EQUILIBRIUM RESPONSE WAS LINEAR IN THIS INCREMENT
          TIME INCREMENT MAY NOW INCREASE TO    2.563E-05

 ITERATION SUMMARY FOR THE INCREMENT:   1 TOTAL ITERATIONS, OF WHICH
   0 ARE SEVERE DISCONTINUITY ITERATIONS AND  1 ARE EQUILIBRIUM ITERATIONS.

 TIME INCREMENT COMPLETED  1.709E-05,  FRACTION OF STEP COMPLETED  5.026E-05
 STEP TIME COMPLETED       5.026E-05,  TOTAL TIME COMPLETED        5.026E-05


  INCREMENT    10 STARTS. ATTEMPT NUMBER  1, TIME INCREMENT  2.563E-05
 
	SYMMETRIC NEW DIRECT SPARSE SOLVER RUNNING ON
 	1 HOST x 1 MPI RANK PER HOST x 1 THREAD PER RANK
        NUMBER OF EQUATIONS:  5043
        NUMBER OF RHS:        1
        NUMBER OF FLOPS:      2.904e+08
        SOLVER ELAPSED TIME:  17ms

               CONVERGENCE CHECKS FOR EQUILIBRIUM ITERATION     1


 AVERAGE FORCE                      4.545E-07   TIME AVG. FORCE       3.003E-07
 LARGEST SCALED RESIDUAL FORCE      1.651E-18   AT NODE       1269   DOF  2
   INSTANCE: PART-1-1                                                                        
  CORRESPONDING RESIDUAL FORCE      1.651E-18
 LARGEST INCREMENT OF DISP.         1.281E-06   AT NODE         13   DOF  1
   INSTANCE: PART-1-1                                                                        
 LARGEST CORRECTION TO DISP.        1.813E-12   AT NODE        224   DOF  2
   INSTANCE: PART-1-1                                                                        
          THE FORCE     EQUILIBRIUM RESPONSE WAS LINEAR IN THIS INCREMENT
          TIME INCREMENT MAY NOW INCREASE TO    3.844E-05

 ITERATION SUMMARY FOR THE INCREMENT:   1 TOTAL ITERATIONS, OF WHICH
   0 ARE SEVERE DISCONTINUITY ITERATIONS AND  1 ARE EQUILIBRIUM ITERATIONS.

 TIME INCREMENT COMPLETED  2.563E-05,  FRACTION OF STEP COMPLETED  7.589E-05
 STEP TIME COMPLETED       7.589E-05,  TOTAL TIME COMPLETED        7.589E-05


  INCREMENT    11 STARTS. ATTEMPT NUMBER  1, TIME INCREMENT  3.844E-05
 
	SYMMETRIC NEW DIRECT SPARSE SOLVER RUNNING ON
 	1 HOST x 1 MPI RANK PER HOST x 1 THREAD PER RANK
        NUMBER OF EQUATIONS:  5043
        NUMBER OF RHS:        1
        NUMBER OF FLOPS:      2.904e+08
        SOLVER ELAPSED TIME:  18ms

               CONVERGENCE CHECKS FOR EQUILIBRIUM ITERATION     1


 AVERAGE FORCE                      6.531E-07   TIME AVG. FORCE       4.179E-07
 LARGEST SCALED RESIDUAL FORCE      5.577E-18   AT NODE       1269   DOF  2
   INSTANCE: PART-1-1                                                                        
  CORRESPONDING RESIDUAL FORCE      5.577E-18
 LARGEST INCREMENT OF DISP.         1.922E-06   AT NODE         13   DOF  1
   INSTANCE: PART-1-1                                                                        
 LARGEST CORRECTION TO DISP.        4.078E-12   AT NODE        224   DOF  2
   INSTANCE: PART-1-1                                                                        
          THE FORCE     EQUILIBRIUM RESPONSE WAS LINEAR IN THIS INCREMENT
          TIME INCREMENT MAY NOW INCREASE TO    5.767E-05

 ITERATION SUMMARY FOR THE INCREMENT:   1 TOTAL ITERATIONS, OF WHICH
   0 ARE SEVERE DISCONTINUITY ITERATIONS AND  1 ARE EQUILIBRIUM ITERATIONS.

 TIME INCREMENT COMPLETED  3.844E-05,  FRACTION OF STEP COMPLETED  1.143E-04
 STEP TIME COMPLETED       1.143E-04,  TOTAL TIME COMPLETED        1.143E-04


  INCREMENT    12 STARTS. ATTEMPT NUMBER  1, TIME INCREMENT  5.767E-05
 
	SYMMETRIC NEW DIRECT SPARSE SOLVER RUNNING ON
 	1 HOST x 1 MPI RANK PER HOST x 1 THREAD PER RANK
        NUMBER OF EQUATIONS:  5043
        NUMBER OF RHS:        1
        NUMBER OF FLOPS:      2.904e+08
        SOLVER ELAPSED TIME:  17ms

               CONVERGENCE CHECKS FOR EQUILIBRIUM ITERATION     1


 AVERAGE FORCE                      9.418E-07   TIME AVG. FORCE       5.488E-07
 LARGEST SCALED RESIDUAL FORCE      1.883E-17   AT NODE       1269   DOF  2
   INSTANCE: PART-1-1                                                                        
  CORRESPONDING RESIDUAL FORCE      1.883E-17
 LARGEST INCREMENT OF DISP.         2.883E-06   AT NODE         13   DOF  1
   INSTANCE: PART-1-1                                                                        
 LARGEST CORRECTION TO DISP.        9.176E-12   AT NODE        224   DOF  2
   INSTANCE: PART-1-1                                                                        
          THE FORCE     EQUILIBRIUM RESPONSE WAS LINEAR IN THIS INCREMENT
          TIME INCREMENT MAY NOW INCREASE TO    8.650E-05

 ITERATION SUMMARY FOR THE INCREMENT:   1 TOTAL ITERATIONS, OF WHICH
   0 ARE SEVERE DISCONTINUITY ITERATIONS AND  1 ARE EQUILIBRIUM ITERATIONS.

 TIME INCREMENT COMPLETED  5.767E-05,  FRACTION OF STEP COMPLETED  1.720E-04
 STEP TIME COMPLETED       1.720E-04,  TOTAL TIME COMPLETED        1.720E-04


  INCREMENT    13 STARTS. ATTEMPT NUMBER  1, TIME INCREMENT  8.650E-05
 
	SYMMETRIC NEW DIRECT SPARSE SOLVER RUNNING ON
 	1 HOST x 1 MPI RANK PER HOST x 1 THREAD PER RANK
        NUMBER OF EQUATIONS:  5043
        NUMBER OF RHS:        1
        NUMBER OF FLOPS:      2.904e+08
        SOLVER ELAPSED TIME:  18ms

               CONVERGENCE CHECKS FOR EQUILIBRIUM ITERATION     1


 AVERAGE FORCE                      1.360E-06   TIME AVG. FORCE       7.111E-07
 LARGEST SCALED RESIDUAL FORCE      6.353E-17   AT NODE       1269   DOF  2
   INSTANCE: PART-1-1                                                                        
  CORRESPONDING RESIDUAL FORCE      6.353E-17
 LARGEST INCREMENT OF DISP.         4.325E-06   AT NODE         13   DOF  1
   INSTANCE: PART-1-1                                                                        
 LARGEST CORRECTION TO DISP.        2.065E-11   AT NODE        224   DOF  2
   INSTANCE: PART-1-1                                                                        
          THE FORCE     EQUILIBRIUM RESPONSE WAS LINEAR IN THIS INCREMENT
          TIME INCREMENT MAY NOW INCREASE TO    1.297E-04

 ITERATION SUMMARY FOR THE INCREMENT:   1 TOTAL ITERATIONS, OF WHICH
   0 ARE SEVERE DISCONTINUITY ITERATIONS AND  1 ARE EQUILIBRIUM ITERATIONS.

 TIME INCREMENT COMPLETED  8.650E-05,  FRACTION OF STEP COMPLETED  2.585E-04
 STEP TIME COMPLETED       2.585E-04,  TOTAL TIME COMPLETED        2.585E-04


  INCREMENT    14 STARTS. ATTEMPT NUMBER  1, TIME INCREMENT  1.297E-04
 
	SYMMETRIC NEW DIRECT SPARSE SOLVER RUNNING ON
 	1 HOST x 1 MPI RANK PER HOST x 1 THREAD PER RANK
        NUMBER OF EQUATIONS:  5043
        NUMBER OF RHS:        1
        NUMBER OF FLOPS:      2.904e+08
        SOLVER ELAPSED TIME:  18ms

               CONVERGENCE CHECKS FOR EQUILIBRIUM ITERATION     1


 AVERAGE FORCE                      1.968E-06   TIME AVG. FORCE       9.206E-07
 LARGEST SCALED RESIDUAL FORCE      2.144E-16   AT NODE       1269   DOF  2
   INSTANCE: PART-1-1                                                                        
  CORRESPONDING RESIDUAL FORCE      2.144E-16
 LARGEST INCREMENT OF DISP.         6.487E-06   AT NODE         13   DOF  1
   INSTANCE: PART-1-1                                                                        
 LARGEST CORRECTION TO DISP.        4.645E-11   AT NODE        224   DOF  2
   INSTANCE: PART-1-1                                                                        
          THE FORCE     EQUILIBRIUM RESPONSE WAS LINEAR IN THIS INCREMENT
          TIME INCREMENT MAY NOW INCREASE TO    1.946E-04

 ITERATION SUMMARY FOR THE INCREMENT:   1 TOTAL ITERATIONS, OF WHICH
   0 ARE SEVERE DISCONTINUITY ITERATIONS AND  1 ARE EQUILIBRIUM ITERATIONS.

 TIME INCREMENT COMPLETED  1.297E-04,  FRACTION OF STEP COMPLETED  3.882E-04
 STEP TIME COMPLETED       3.882E-04,  TOTAL TIME COMPLETED        3.882E-04


  INCREMENT    15 STARTS. ATTEMPT NUMBER  1, TIME INCREMENT  1.946E-04
 
	SYMMETRIC NEW DIRECT SPARSE SOLVER RUNNING ON
 	1 HOST x 1 MPI RANK PER HOST x 1 THREAD PER RANK
        NUMBER OF EQUATIONS:  5043
        NUMBER OF RHS:        1
        NUMBER OF FLOPS:      2.904e+08
        SOLVER ELAPSED TIME:  18ms

               CONVERGENCE CHECKS FOR EQUILIBRIUM ITERATION     1


 AVERAGE FORCE                      2.849E-06   TIME AVG. FORCE       1.196E-06
 LARGEST SCALED RESIDUAL FORCE      7.236E-16   AT NODE       1269   DOF  2
   INSTANCE: PART-1-1                                                                        
  CORRESPONDING RESIDUAL FORCE      7.236E-16
 LARGEST INCREMENT OF DISP.         9.731E-06   AT NODE         13   DOF  1
   INSTANCE: PART-1-1                                                                        
 LARGEST CORRECTION TO DISP.        1.045E-10   AT NODE        224   DOF  2
   INSTANCE: PART-1-1                                                                        
          THE FORCE     EQUILIBRIUM RESPONSE WAS LINEAR IN THIS INCREMENT
          TIME INCREMENT MAY NOW INCREASE TO    2.919E-04

 ITERATION SUMMARY FOR THE INCREMENT:   1 TOTAL ITERATIONS, OF WHICH
   0 ARE SEVERE DISCONTINUITY ITERATIONS AND  1 ARE EQUILIBRIUM ITERATIONS.

 TIME INCREMENT COMPLETED  1.946E-04,  FRACTION OF STEP COMPLETED  5.829E-04
 STEP TIME COMPLETED       5.829E-04,  TOTAL TIME COMPLETED        5.829E-04


  INCREMENT    16 STARTS. ATTEMPT NUMBER  1, TIME INCREMENT  2.919E-04
 
	SYMMETRIC NEW DIRECT SPARSE SOLVER RUNNING ON
 	1 HOST x 1 MPI RANK PER HOST x 1 THREAD PER RANK
        NUMBER OF EQUATIONS:  5043
        NUMBER OF RHS:        1
        NUMBER OF FLOPS:      2.904e+08
        SOLVER ELAPSED TIME:  18ms

               CONVERGENCE CHECKS FOR EQUILIBRIUM ITERATION     1


 AVERAGE FORCE                      4.098E-06   TIME AVG. FORCE       1.559E-06
 LARGEST SCALED RESIDUAL FORCE      2.442E-15   AT NODE       1269   DOF  2
   INSTANCE: PART-1-1                                                                        
  CORRESPONDING RESIDUAL FORCE      2.442E-15
 LARGEST INCREMENT OF DISP.         1.460E-05   AT NODE         13   DOF  1
   INSTANCE: PART-1-1                                                                        
 LARGEST CORRECTION TO DISP.        2.351E-10   AT NODE        224   DOF  2
   INSTANCE: PART-1-1                                                                        
          THE FORCE     EQUILIBRIUM RESPONSE WAS LINEAR IN THIS INCREMENT
          TIME INCREMENT MAY NOW INCREASE TO    4.379E-04

 ITERATION SUMMARY FOR THE INCREMENT:   1 TOTAL ITERATIONS, OF WHICH
   0 ARE SEVERE DISCONTINUITY ITERATIONS AND  1 ARE EQUILIBRIUM ITERATIONS.

 TIME INCREMENT COMPLETED  2.919E-04,  FRACTION OF STEP COMPLETED  8.748E-04
 STEP TIME COMPLETED       8.748E-04,  TOTAL TIME COMPLETED        8.748E-04


  INCREMENT    17 STARTS. ATTEMPT NUMBER  1, TIME INCREMENT  4.379E-04
 
	SYMMETRIC NEW DIRECT SPARSE SOLVER RUNNING ON
 	1 HOST x 1 MPI RANK PER HOST x 1 THREAD PER RANK
        NUMBER OF EQUATIONS:  5043
        NUMBER OF RHS:        1
        NUMBER OF FLOPS:      2.904e+08
        SOLVER ELAPSED TIME:  17ms

               CONVERGENCE CHECKS FOR EQUILIBRIUM ITERATION     1


 AVERAGE FORCE                      5.851E-06   TIME AVG. FORCE       2.036E-06
 LARGEST SCALED RESIDUAL FORCE      8.240E-15   AT NODE       1269   DOF  2
   INSTANCE: PART-1-1                                                                        
  CORRESPONDING RESIDUAL FORCE      8.240E-15
 LARGEST INCREMENT OF DISP.         2.189E-05   AT NODE         13   DOF  1
   INSTANCE: PART-1-1                                                                        
 LARGEST CORRECTION TO DISP.        5.290E-10   AT NODE        224   DOF  2
   INSTANCE: PART-1-1                                                                        
          THE FORCE     EQUILIBRIUM RESPONSE WAS LINEAR IN THIS INCREMENT
          TIME INCREMENT MAY NOW INCREASE TO    6.568E-04

 ITERATION SUMMARY FOR THE INCREMENT:   1 TOTAL ITERATIONS, OF WHICH
   0 ARE SEVERE DISCONTINUITY ITERATIONS AND  1 ARE EQUILIBRIUM ITERATIONS.

 TIME INCREMENT COMPLETED  4.379E-04,  FRACTION OF STEP COMPLETED  1.313E-03
 STEP TIME COMPLETED       1.313E-03,  TOTAL TIME COMPLETED        1.313E-03


  INCREMENT    18 STARTS. ATTEMPT NUMBER  1, TIME INCREMENT  6.568E-04
 
	SYMMETRIC NEW DIRECT SPARSE SOLVER RUNNING ON
 	1 HOST x 1 MPI RANK PER HOST x 1 THREAD PER RANK
        NUMBER OF EQUATIONS:  5043
        NUMBER OF RHS:        1
        NUMBER OF FLOPS:      2.904e+08
        SOLVER ELAPSED TIME:  17ms

               CONVERGENCE CHECKS FOR EQUILIBRIUM ITERATION     1


 AVERAGE FORCE                      8.282E-06   TIME AVG. FORCE       2.660E-06
 LARGEST SCALED RESIDUAL FORCE      2.780E-14   AT NODE       1269   DOF  2
   INSTANCE: PART-1-1                                                                        
  CORRESPONDING RESIDUAL FORCE      2.780E-14
 LARGEST INCREMENT OF DISP.         3.284E-05   AT NODE         13   DOF  1
   INSTANCE: PART-1-1                                                                        
 LARGEST CORRECTION TO DISP.        1.190E-09   AT NODE        224   DOF  2
   INSTANCE: PART-1-1                                                                        
          THE FORCE     EQUILIBRIUM EQUATIONS HAVE CONVERGED
          TIME INCREMENT MAY NOW INCREASE TO    9.853E-04

 ITERATION SUMMARY FOR THE INCREMENT:   1 TOTAL ITERATIONS, OF WHICH
   0 ARE SEVERE DISCONTINUITY ITERATIONS AND  1 ARE EQUILIBRIUM ITERATIONS.

 TIME INCREMENT COMPLETED  6.568E-04,  FRACTION OF STEP COMPLETED  1.970E-03
 STEP TIME COMPLETED       1.970E-03,  TOTAL TIME COMPLETED        1.970E-03


  INCREMENT    19 STARTS. ATTEMPT NUMBER  1, TIME INCREMENT  9.853E-04
 
	SYMMETRIC NEW DIRECT SPARSE SOLVER RUNNING ON
 	1 HOST x 1 MPI RANK PER HOST x 1 THREAD PER RANK
        NUMBER OF EQUATIONS:  5043
        NUMBER OF RHS:        1
        NUMBER OF FLOPS:      2.904e+08
        SOLVER ELAPSED TIME:  18ms

               CONVERGENCE CHECKS FOR EQUILIBRIUM ITERATION     1


 AVERAGE FORCE                      1.165E-05   TIME AVG. FORCE       3.478E-06
 LARGEST SCALED RESIDUAL FORCE      9.380E-14   AT NODE       1269   DOF  2
   INSTANCE: PART-1-1                                                                        
  CORRESPONDING RESIDUAL FORCE      9.380E-14
 LARGEST INCREMENT OF DISP.         4.926E-05   AT NODE         13   DOF  1
   INSTANCE: PART-1-1                                                                        
 LARGEST CORRECTION TO DISP.        2.677E-09   AT NODE        224   DOF  2
   INSTANCE: PART-1-1                                                                        
          THE FORCE     EQUILIBRIUM EQUATIONS HAVE CONVERGED
          TIME INCREMENT MAY NOW INCREASE TO    1.478E-03

 ITERATION SUMMARY FOR THE INCREMENT:   1 TOTAL ITERATIONS, OF WHICH
   0 ARE SEVERE DISCONTINUITY ITERATIONS AND  1 ARE EQUILIBRIUM ITERATIONS.

 TIME INCREMENT COMPLETED  9.853E-04,  FRACTION OF STEP COMPLETED  2.955E-03
 STEP TIME COMPLETED       2.955E-03,  TOTAL TIME COMPLETED        2.955E-03


  INCREMENT    20 STARTS. ATTEMPT NUMBER  1, TIME INCREMENT  1.478E-03
 
	SYMMETRIC NEW DIRECT SPARSE SOLVER RUNNING ON
 	1 HOST x 1 MPI RANK PER HOST x 1 THREAD PER RANK
        NUMBER OF EQUATIONS:  5043
        NUMBER OF RHS:        1
        NUMBER OF FLOPS:      2.904e+08
        SOLVER ELAPSED TIME:  18ms

               CONVERGENCE CHECKS FOR EQUILIBRIUM ITERATION     1


 AVERAGE FORCE                      1.640E-05   TIME AVG. FORCE       4.555E-06
 LARGEST SCALED RESIDUAL FORCE      3.164E-13   AT NODE       1269   DOF  2
   INSTANCE: PART-1-1                                                                        
  CORRESPONDING RESIDUAL FORCE      3.164E-13
 LARGEST INCREMENT OF DISP.         7.389E-05   AT NODE         13   DOF  1
   INSTANCE: PART-1-1                                                                        
 LARGEST CORRECTION TO DISP.        6.021E-09   AT NODE        224   DOF  2
   INSTANCE: PART-1-1                                                                        
          THE FORCE     EQUILIBRIUM EQUATIONS HAVE CONVERGED
          TIME INCREMENT MAY NOW INCREASE TO    2.217E-03

 ITERATION SUMMARY FOR THE INCREMENT:   1 TOTAL ITERATIONS, OF WHICH
   0 ARE SEVERE DISCONTINUITY ITERATIONS AND  1 ARE EQUILIBRIUM ITERATIONS.

 TIME INCREMENT COMPLETED  1.478E-03,  FRACTION OF STEP COMPLETED  4.433E-03
 STEP TIME COMPLETED       4.433E-03,  TOTAL TIME COMPLETED        4.433E-03


  INCREMENT    21 STARTS. ATTEMPT NUMBER  1, TIME INCREMENT  2.217E-03
 
	SYMMETRIC NEW DIRECT SPARSE SOLVER RUNNING ON
 	1 HOST x 1 MPI RANK PER HOST x 1 THREAD PER RANK
        NUMBER OF EQUATIONS:  5043
        NUMBER OF RHS:        1
        NUMBER OF FLOPS:      2.904e+08
        SOLVER ELAPSED TIME:  17ms

               CONVERGENCE CHECKS FOR EQUILIBRIUM ITERATION     1


 AVERAGE FORCE                      2.320E-05   TIME AVG. FORCE       5.989E-06
 LARGEST SCALED RESIDUAL FORCE      1.067E-12   AT NODE       1269   DOF  2
   INSTANCE: PART-1-1                                                                        
  CORRESPONDING RESIDUAL FORCE      1.067E-12
 LARGEST INCREMENT OF DISP.         1.108E-04   AT NODE         13   DOF  1
   INSTANCE: PART-1-1                                                                        
 LARGEST CORRECTION TO DISP.        1.354E-08   AT NODE        224   DOF  2
   INSTANCE: PART-1-1                                                                        
          THE FORCE     EQUILIBRIUM EQUATIONS HAVE CONVERGED
          TIME INCREMENT MAY NOW INCREASE TO    3.325E-03

 ITERATION SUMMARY FOR THE INCREMENT:   1 TOTAL ITERATIONS, OF WHICH
   0 ARE SEVERE DISCONTINUITY ITERATIONS AND  1 ARE EQUILIBRIUM ITERATIONS.

 TIME INCREMENT COMPLETED  2.217E-03,  FRACTION OF STEP COMPLETED  6.650E-03
 STEP TIME COMPLETED       6.650E-03,  TOTAL TIME COMPLETED        6.650E-03


  INCREMENT    22 STARTS. ATTEMPT NUMBER  1, TIME INCREMENT  3.325E-03
 
	SYMMETRIC NEW DIRECT SPARSE SOLVER RUNNING ON
 	1 HOST x 1 MPI RANK PER HOST x 1 THREAD PER RANK
        NUMBER OF EQUATIONS:  5043
        NUMBER OF RHS:        1
        NUMBER OF FLOPS:      2.904e+08
        SOLVER ELAPSED TIME:  18ms

               CONVERGENCE CHECKS FOR EQUILIBRIUM ITERATION     1


 AVERAGE FORCE                      3.316E-05   TIME AVG. FORCE       7.930E-06
 LARGEST SCALED RESIDUAL FORCE      3.597E-12   AT NODE       1269   DOF  2
   INSTANCE: PART-1-1                                                                        
  CORRESPONDING RESIDUAL FORCE      3.597E-12
 LARGEST INCREMENT OF DISP.         1.663E-04   AT NODE         13   DOF  1
   INSTANCE: PART-1-1                                                                        
 LARGEST CORRECTION TO DISP.        3.044E-08   AT NODE        224   DOF  2
   INSTANCE: PART-1-1                                                                        
          THE FORCE     EQUILIBRIUM EQUATIONS HAVE CONVERGED
          TIME INCREMENT MAY NOW INCREASE TO    4.988E-03

 ITERATION SUMMARY FOR THE INCREMENT:   1 TOTAL ITERATIONS, OF WHICH
   0 ARE SEVERE DISCONTINUITY ITERATIONS AND  1 ARE EQUILIBRIUM ITERATIONS.

 TIME INCREMENT COMPLETED  3.325E-03,  FRACTION OF STEP COMPLETED  9.975E-03
 STEP TIME COMPLETED       9.975E-03,  TOTAL TIME COMPLETED        9.975E-03


  INCREMENT    23 STARTS. ATTEMPT NUMBER  1, TIME INCREMENT  4.988E-03
 
	SYMMETRIC NEW DIRECT SPARSE SOLVER RUNNING ON
 	1 HOST x 1 MPI RANK PER HOST x 1 THREAD PER RANK
        NUMBER OF EQUATIONS:  5043
        NUMBER OF RHS:        1
        NUMBER OF FLOPS:      2.904e+08
        SOLVER ELAPSED TIME:  18ms

               CONVERGENCE CHECKS FOR EQUILIBRIUM ITERATION     1


 AVERAGE FORCE                      4.791E-05   TIME AVG. FORCE       1.060E-05
 LARGEST SCALED RESIDUAL FORCE      1.212E-11   AT NODE       1269   DOF  2
   INSTANCE: PART-1-1                                                                        
  CORRESPONDING RESIDUAL FORCE      1.212E-11
 LARGEST INCREMENT OF DISP.         2.494E-04   AT NODE         13   DOF  1
   INSTANCE: PART-1-1                                                                        
 LARGEST CORRECTION TO DISP.        6.839E-08   AT NODE        224   DOF  2
   INSTANCE: PART-1-1                                                                        
          THE FORCE     EQUILIBRIUM EQUATIONS HAVE CONVERGED
          TIME INCREMENT MAY NOW INCREASE TO    5.000E-03

 ITERATION SUMMARY FOR THE INCREMENT:   1 TOTAL ITERATIONS, OF WHICH
   0 ARE SEVERE DISCONTINUITY ITERATIONS AND  1 ARE EQUILIBRIUM ITERATIONS.

 TIME INCREMENT COMPLETED  4.988E-03,  FRACTION OF STEP COMPLETED  1.496E-02
 STEP TIME COMPLETED       1.496E-02,  TOTAL TIME COMPLETED        1.496E-02


  INCREMENT    24 STARTS. ATTEMPT NUMBER  1, TIME INCREMENT  5.000E-03
 
	SYMMETRIC NEW DIRECT SPARSE SOLVER RUNNING ON
 	1 HOST x 1 MPI RANK PER HOST x 1 THREAD PER RANK
        NUMBER OF EQUATIONS:  5043
        NUMBER OF RHS:        1
        NUMBER OF FLOPS:      2.904e+08
        SOLVER ELAPSED TIME:  17ms

               CONVERGENCE CHECKS FOR EQUILIBRIUM ITERATION     1


 AVERAGE FORCE                      6.303E-05   TIME AVG. FORCE       1.387E-05
 LARGEST SCALED RESIDUAL FORCE      1.459E-11   AT NODE       1269   DOF  2
   INSTANCE: PART-1-1                                                                        
  CORRESPONDING RESIDUAL FORCE      1.459E-11
 LARGEST INCREMENT OF DISP.         2.500E-04   AT NODE         13   DOF  1
   INSTANCE: PART-1-1                                                                        
 LARGEST CORRECTION TO DISP.        8.481E-08   AT NODE        224   DOF  2
   INSTANCE: PART-1-1                                                                        
          THE FORCE     EQUILIBRIUM EQUATIONS HAVE CONVERGED

 ITERATION SUMMARY FOR THE INCREMENT:   1 TOTAL ITERATIONS, OF WHICH
   0 ARE SEVERE DISCONTINUITY ITERATIONS AND  1 ARE EQUILIBRIUM ITERATIONS.

 TIME INCREMENT COMPLETED  5.000E-03,  FRACTION OF STEP COMPLETED  1.996E-02
 STEP TIME COMPLETED       1.996E-02,  TOTAL TIME COMPLETED        1.996E-02


  INCREMENT    25 STARTS. ATTEMPT NUMBER  1, TIME INCREMENT  5.000E-03
 
	SYMMETRIC NEW DIRECT SPARSE SOLVER RUNNING ON
 	1 HOST x 1 MPI RANK PER HOST x 1 THREAD PER RANK
        NUMBER OF EQUATIONS:  5043
        NUMBER OF RHS:        1
        NUMBER OF FLOPS:      2.904e+08
        SOLVER ELAPSED TIME:  17ms

               CONVERGENCE CHECKS FOR EQUILIBRIUM ITERATION     1


 AVERAGE FORCE                      7.827E-05   TIME AVG. FORCE       1.766E-05
 LARGEST SCALED RESIDUAL FORCE      1.457E-11   AT NODE       1269   DOF  2
   INSTANCE: PART-1-1                                                                        
  CORRESPONDING RESIDUAL FORCE      1.457E-11
 LARGEST INCREMENT OF DISP.         2.500E-04   AT NODE         13   DOF  1
   INSTANCE: PART-1-1                                                                        
 LARGEST CORRECTION TO DISP.        8.476E-08   AT NODE        224   DOF  2
   INSTANCE: PART-1-1                                                                        
          THE FORCE     EQUILIBRIUM EQUATIONS HAVE CONVERGED

 ITERATION SUMMARY FOR THE INCREMENT:   1 TOTAL ITERATIONS, OF WHICH
   0 ARE SEVERE DISCONTINUITY ITERATIONS AND  1 ARE EQUILIBRIUM ITERATIONS.

 TIME INCREMENT COMPLETED  5.000E-03,  FRACTION OF STEP COMPLETED  2.496E-02
 STEP TIME COMPLETED       2.496E-02,  TOTAL TIME COMPLETED        2.496E-02


  INCREMENT    26 STARTS. ATTEMPT NUMBER  1, TIME INCREMENT  5.000E-03
 
	SYMMETRIC NEW DIRECT SPARSE SOLVER RUNNING ON
 	1 HOST x 1 MPI RANK PER HOST x 1 THREAD PER RANK
        NUMBER OF EQUATIONS:  5043
        NUMBER OF RHS:        1
        NUMBER OF FLOPS:      2.904e+08
        SOLVER ELAPSED TIME:  18ms

               CONVERGENCE CHECKS FOR EQUILIBRIUM ITERATION     1


 AVERAGE FORCE                      9.362E-05   TIME AVG. FORCE       2.188E-05
 LARGEST SCALED RESIDUAL FORCE      1.453E-11   AT NODE       1269   DOF  2
   INSTANCE: PART-1-1                                                                        
  CORRESPONDING RESIDUAL FORCE      1.453E-11
 LARGEST INCREMENT OF DISP.         2.500E-04   AT NODE         13   DOF  1
   INSTANCE: PART-1-1                                                                        
 LARGEST CORRECTION TO DISP.        8.459E-08   AT NODE        224   DOF  2
   INSTANCE: PART-1-1                                                                        
          THE FORCE     EQUILIBRIUM EQUATIONS HAVE CONVERGED

 ITERATION SUMMARY FOR THE INCREMENT:   1 TOTAL ITERATIONS, OF WHICH
   0 ARE SEVERE DISCONTINUITY ITERATIONS AND  1 ARE EQUILIBRIUM ITERATIONS.

 TIME INCREMENT COMPLETED  5.000E-03,  FRACTION OF STEP COMPLETED  2.996E-02
 STEP TIME COMPLETED       2.996E-02,  TOTAL TIME COMPLETED        2.996E-02


  INCREMENT    27 STARTS. ATTEMPT NUMBER  1, TIME INCREMENT  5.000E-03
 
	SYMMETRIC NEW DIRECT SPARSE SOLVER RUNNING ON
 	1 HOST x 1 MPI RANK PER HOST x 1 THREAD PER RANK
        NUMBER OF EQUATIONS:  5043
        NUMBER OF RHS:        1
        NUMBER OF FLOPS:      2.904e+08
        SOLVER ELAPSED TIME:  17ms

               CONVERGENCE CHECKS FOR EQUILIBRIUM ITERATION     1


 AVERAGE FORCE                      1.089E-04   TIME AVG. FORCE       2.646E-05
 LARGEST SCALED RESIDUAL FORCE      1.450E-11   AT NODE       1269   DOF  2
   INSTANCE: PART-1-1                                                                        
  CORRESPONDING RESIDUAL FORCE      1.450E-11
 LARGEST INCREMENT OF DISP.         2.500E-04   AT NODE         13   DOF  1
   INSTANCE: PART-1-1                                                                        
 LARGEST CORRECTION TO DISP.        8.441E-08   AT NODE        224   DOF  2
   INSTANCE: PART-1-1                                                                        
          THE FORCE     EQUILIBRIUM EQUATIONS HAVE CONVERGED

 ITERATION SUMMARY FOR THE INCREMENT:   1 TOTAL ITERATIONS, OF WHICH
   0 ARE SEVERE DISCONTINUITY ITERATIONS AND  1 ARE EQUILIBRIUM ITERATIONS.

 TIME INCREMENT COMPLETED  5.000E-03,  FRACTION OF STEP COMPLETED  3.496E-02
 STEP TIME COMPLETED       3.496E-02,  TOTAL TIME COMPLETED        3.496E-02


  INCREMENT    28 STARTS. ATTEMPT NUMBER  1, TIME INCREMENT  5.000E-03
 
	SYMMETRIC NEW DIRECT SPARSE SOLVER RUNNING ON
 	1 HOST x 1 MPI RANK PER HOST x 1 THREAD PER RANK
        NUMBER OF EQUATIONS:  5043
        NUMBER OF RHS:        1
        NUMBER OF FLOPS:      2.904e+08
        SOLVER ELAPSED TIME:  18ms

               CONVERGENCE CHECKS FOR EQUILIBRIUM ITERATION     1


 AVERAGE FORCE                      1.241E-04   TIME AVG. FORCE       3.134E-05
 LARGEST SCALED RESIDUAL FORCE      1.446E-11   AT NODE       1269   DOF  2
   INSTANCE: PART-1-1                                                                        
  CORRESPONDING RESIDUAL FORCE      1.446E-11
 LARGEST INCREMENT OF DISP.         2.500E-04   AT NODE         13   DOF  1
   INSTANCE: PART-1-1                                                                        
 LARGEST CORRECTION TO DISP.        8.423E-08   AT NODE        224   DOF  2
   INSTANCE: PART-1-1                                                                        
          THE FORCE     EQUILIBRIUM EQUATIONS HAVE CONVERGED

 ITERATION SUMMARY FOR THE INCREMENT:   1 TOTAL ITERATIONS, OF WHICH
   0 ARE SEVERE DISCONTINUITY ITERATIONS AND  1 ARE EQUILIBRIUM ITERATIONS.

 TIME INCREMENT COMPLETED  5.000E-03,  FRACTION OF STEP COMPLETED  3.996E-02
 STEP TIME COMPLETED       3.996E-02,  TOTAL TIME COMPLETED        3.996E-02


  INCREMENT    29 STARTS. ATTEMPT NUMBER  1, TIME INCREMENT  5.000E-03
 
	SYMMETRIC NEW DIRECT SPARSE SOLVER RUNNING ON
 	1 HOST x 1 MPI RANK PER HOST x 1 THREAD PER RANK
        NUMBER OF EQUATIONS:  5043
        NUMBER OF RHS:        1
        NUMBER OF FLOPS:      2.904e+08
        SOLVER ELAPSED TIME:  18ms

               CONVERGENCE CHECKS FOR EQUILIBRIUM ITERATION     1


 AVERAGE FORCE                      1.393E-04   TIME AVG. FORCE       3.648E-05
 LARGEST SCALED RESIDUAL FORCE      1.442E-11   AT NODE       1269   DOF  2
   INSTANCE: PART-1-1                                                                        
  CORRESPONDING RESIDUAL FORCE      1.442E-11
 LARGEST INCREMENT OF DISP.         2.500E-04   AT NODE         13   DOF  1
   INSTANCE: PART-1-1                                                                        
 LARGEST CORRECTION TO DISP.        8.406E-08   AT NODE        224   DOF  2
   INSTANCE: PART-1-1                                                                        
          THE FORCE     EQUILIBRIUM EQUATIONS HAVE CONVERGED

 ITERATION SUMMARY FOR THE INCREMENT:   1 TOTAL ITERATIONS, OF WHICH
   0 ARE SEVERE DISCONTINUITY ITERATIONS AND  1 ARE EQUILIBRIUM ITERATIONS.

 TIME INCREMENT COMPLETED  5.000E-03,  FRACTION OF STEP COMPLETED  4.496E-02
 STEP TIME COMPLETED       4.496E-02,  TOTAL TIME COMPLETED        4.496E-02


  INCREMENT    30 STARTS. ATTEMPT NUMBER  1, TIME INCREMENT  5.000E-03
 
	SYMMETRIC NEW DIRECT SPARSE SOLVER RUNNING ON
 	1 HOST x 1 MPI RANK PER HOST x 1 THREAD PER RANK
        NUMBER OF EQUATIONS:  5043
        NUMBER OF RHS:        1
        NUMBER OF FLOPS:      2.904e+08
        SOLVER ELAPSED TIME:  18ms

               CONVERGENCE CHECKS FOR EQUILIBRIUM ITERATION     1


 AVERAGE FORCE                      1.544E-04   TIME AVG. FORCE       4.184E-05
 LARGEST SCALED RESIDUAL FORCE      1.438E-11   AT NODE       1269   DOF  2
   INSTANCE: PART-1-1                                                                        
  CORRESPONDING RESIDUAL FORCE      1.438E-11
 LARGEST INCREMENT OF DISP.         2.500E-04   AT NODE         13   DOF  1
   INSTANCE: PART-1-1                                                                        
 LARGEST CORRECTION TO DISP.        8.388E-08   AT NODE        224   DOF  2
   INSTANCE: PART-1-1                                                                        
          THE FORCE     EQUILIBRIUM EQUATIONS HAVE CONVERGED

 ITERATION SUMMARY FOR THE INCREMENT:   1 TOTAL ITERATIONS, OF WHICH
   0 ARE SEVERE DISCONTINUITY ITERATIONS AND  1 ARE EQUILIBRIUM ITERATIONS.

 TIME INCREMENT COMPLETED  5.000E-03,  FRACTION OF STEP COMPLETED  4.996E-02
 STEP TIME COMPLETED       4.996E-02,  TOTAL TIME COMPLETED        4.996E-02


  INCREMENT    31 STARTS. ATTEMPT NUMBER  1, TIME INCREMENT  5.000E-03
 
	SYMMETRIC NEW DIRECT SPARSE SOLVER RUNNING ON
 	1 HOST x 1 MPI RANK PER HOST x 1 THREAD PER RANK
        NUMBER OF EQUATIONS:  5043
        NUMBER OF RHS:        1
        NUMBER OF FLOPS:      2.904e+08
        SOLVER ELAPSED TIME:  17ms

               CONVERGENCE CHECKS FOR EQUILIBRIUM ITERATION     1


 AVERAGE FORCE                      1.696E-04   TIME AVG. FORCE       4.740E-05
 LARGEST SCALED RESIDUAL FORCE      1.435E-11   AT NODE       1269   DOF  2
   INSTANCE: PART-1-1                                                                        
  CORRESPONDING RESIDUAL FORCE      1.435E-11
 LARGEST INCREMENT OF DISP.         2.500E-04   AT NODE         13   DOF  1
   INSTANCE: PART-1-1                                                                        
 LARGEST CORRECTION TO DISP.        8.371E-08   AT NODE        224   DOF  2
   INSTANCE: PART-1-1                                                                        
          THE FORCE     EQUILIBRIUM EQUATIONS HAVE CONVERGED

 ITERATION SUMMARY FOR THE INCREMENT:   1 TOTAL ITERATIONS, OF WHICH
   0 ARE SEVERE DISCONTINUITY ITERATIONS AND  1 ARE EQUILIBRIUM ITERATIONS.

 TIME INCREMENT COMPLETED  5.000E-03,  FRACTION OF STEP COMPLETED  5.496E-02
 STEP TIME COMPLETED       5.496E-02,  TOTAL TIME COMPLETED        5.496E-02


  INCREMENT    32 STARTS. ATTEMPT NUMBER  1, TIME INCREMENT  5.000E-03
 
	SYMMETRIC NEW DIRECT SPARSE SOLVER RUNNING ON
 	1 HOST x 1 MPI RANK PER HOST x 1 THREAD PER RANK
        NUMBER OF EQUATIONS:  5043
        NUMBER OF RHS:        1
        NUMBER OF FLOPS:      2.904e+08
        SOLVER ELAPSED TIME:  17ms

               CONVERGENCE CHECKS FOR EQUILIBRIUM ITERATION     1


 AVERAGE FORCE                      1.847E-04   TIME AVG. FORCE       5.312E-05
 LARGEST SCALED RESIDUAL FORCE      1.431E-11   AT NODE       1269   DOF  2
   INSTANCE: PART-1-1                                                                        
  CORRESPONDING RESIDUAL FORCE      1.431E-11
 LARGEST INCREMENT OF DISP.         2.500E-04   AT NODE         13   DOF  1
   INSTANCE: PART-1-1                                                                        
 LARGEST CORRECTION TO DISP.        8.353E-08   AT NODE        224   DOF  2
   INSTANCE: PART-1-1                                                                        
          THE FORCE     EQUILIBRIUM EQUATIONS HAVE CONVERGED

 ITERATION SUMMARY FOR THE INCREMENT:   1 TOTAL ITERATIONS, OF WHICH
   0 ARE SEVERE DISCONTINUITY ITERATIONS AND  1 ARE EQUILIBRIUM ITERATIONS.

 TIME INCREMENT COMPLETED  5.000E-03,  FRACTION OF STEP COMPLETED  5.996E-02
 STEP TIME COMPLETED       5.996E-02,  TOTAL TIME COMPLETED        5.996E-02


  INCREMENT    33 STARTS. ATTEMPT NUMBER  1, TIME INCREMENT  5.000E-03
 
	SYMMETRIC NEW DIRECT SPARSE SOLVER RUNNING ON
 	1 HOST x 1 MPI RANK PER HOST x 1 THREAD PER RANK
        NUMBER OF EQUATIONS:  5043
        NUMBER OF RHS:        1
        NUMBER OF FLOPS:      2.904e+08
        SOLVER ELAPSED TIME:  18ms

               CONVERGENCE CHECKS FOR EQUILIBRIUM ITERATION     1


 AVERAGE FORCE                      1.996E-04   TIME AVG. FORCE       5.898E-05
 LARGEST SCALED RESIDUAL FORCE      1.427E-11   AT NODE       1269   DOF  2
   INSTANCE: PART-1-1                                                                        
  CORRESPONDING RESIDUAL FORCE      1.427E-11
 LARGEST INCREMENT OF DISP.         2.500E-04   AT NODE         13   DOF  1
   INSTANCE: PART-1-1                                                                        
 LARGEST CORRECTION TO DISP.        8.336E-08   AT NODE        224   DOF  2
   INSTANCE: PART-1-1                                                                        
          THE FORCE     EQUILIBRIUM EQUATIONS HAVE CONVERGED

 ITERATION SUMMARY FOR THE INCREMENT:   1 TOTAL ITERATIONS, OF WHICH
   0 ARE SEVERE DISCONTINUITY ITERATIONS AND  1 ARE EQUILIBRIUM ITERATIONS.

 TIME INCREMENT COMPLETED  5.000E-03,  FRACTION OF STEP COMPLETED  6.496E-02
 STEP TIME COMPLETED       6.496E-02,  TOTAL TIME COMPLETED        6.496E-02


  INCREMENT    34 STARTS. ATTEMPT NUMBER  1, TIME INCREMENT  5.000E-03
 
	SYMMETRIC NEW DIRECT SPARSE SOLVER RUNNING ON
 	1 HOST x 1 MPI RANK PER HOST x 1 THREAD PER RANK
        NUMBER OF EQUATIONS:  5043
        NUMBER OF RHS:        1
        NUMBER OF FLOPS:      2.904e+08
        SOLVER ELAPSED TIME:  18ms

               CONVERGENCE CHECKS FOR EQUILIBRIUM ITERATION     1


 AVERAGE FORCE                      2.146E-04   TIME AVG. FORCE       6.496E-05
 LARGEST SCALED RESIDUAL FORCE      1.424E-11   AT NODE       1269   DOF  2
   INSTANCE: PART-1-1                                                                        
  CORRESPONDING RESIDUAL FORCE      1.424E-11
 LARGEST INCREMENT OF DISP.         2.500E-04   AT NODE         13   DOF  1
   INSTANCE: PART-1-1                                                                        
 LARGEST CORRECTION TO DISP.        8.319E-08   AT NODE        224   DOF  2
   INSTANCE: PART-1-1                                                                        
          THE FORCE     EQUILIBRIUM EQUATIONS HAVE CONVERGED

 ITERATION SUMMARY FOR THE INCREMENT:   1 TOTAL ITERATIONS, OF WHICH
   0 ARE SEVERE DISCONTINUITY ITERATIONS AND  1 ARE EQUILIBRIUM ITERATIONS.

 TIME INCREMENT COMPLETED  5.000E-03,  FRACTION OF STEP COMPLETED  6.996E-02
 STEP TIME COMPLETED       6.996E-02,  TOTAL TIME COMPLETED        6.996E-02


  INCREMENT    35 STARTS. ATTEMPT NUMBER  1, TIME INCREMENT  5.000E-03
 
	SYMMETRIC NEW DIRECT SPARSE SOLVER RUNNING ON
 	1 HOST x 1 MPI RANK PER HOST x 1 THREAD PER RANK
        NUMBER OF EQUATIONS:  5043
        NUMBER OF RHS:        1
        NUMBER OF FLOPS:      2.904e+08
        SOLVER ELAPSED TIME:  18ms

               CONVERGENCE CHECKS FOR EQUILIBRIUM ITERATION     1


 AVERAGE FORCE                      2.295E-04   TIME AVG. FORCE       7.106E-05
 LARGEST SCALED RESIDUAL FORCE      1.420E-11   AT NODE       1269   DOF  2
   INSTANCE: PART-1-1                                                                        
  CORRESPONDING RESIDUAL FORCE      1.420E-11
 LARGEST INCREMENT OF DISP.         2.500E-04   AT NODE         13   DOF  1
   INSTANCE: PART-1-1                                                                        
 LARGEST CORRECTION TO DISP.        8.301E-08   AT NODE        224   DOF  2
   INSTANCE: PART-1-1                                                                        
          THE FORCE     EQUILIBRIUM EQUATIONS HAVE CONVERGED

 ITERATION SUMMARY FOR THE INCREMENT:   1 TOTAL ITERATIONS, OF WHICH
   0 ARE SEVERE DISCONTINUITY ITERATIONS AND  1 ARE EQUILIBRIUM ITERATIONS.

 TIME INCREMENT COMPLETED  5.000E-03,  FRACTION OF STEP COMPLETED  7.496E-02
 STEP TIME COMPLETED       7.496E-02,  TOTAL TIME COMPLETED        7.496E-02


  INCREMENT    36 STARTS. ATTEMPT NUMBER  1, TIME INCREMENT  5.000E-03
 
	SYMMETRIC NEW DIRECT SPARSE SOLVER RUNNING ON
 	1 HOST x 1 MPI RANK PER HOST x 1 THREAD PER RANK
        NUMBER OF EQUATIONS:  5043
        NUMBER OF RHS:        1
        NUMBER OF FLOPS:      2.904e+08
        SOLVER ELAPSED TIME:  17ms

               CONVERGENCE CHECKS FOR EQUILIBRIUM ITERATION     1


 AVERAGE FORCE                      2.445E-04   TIME AVG. FORCE       7.725E-05
 LARGEST SCALED RESIDUAL FORCE      1.416E-11   AT NODE       1269   DOF  2
   INSTANCE: PART-1-1                                                                        
  CORRESPONDING RESIDUAL FORCE      1.416E-11
 LARGEST INCREMENT OF DISP.         2.500E-04   AT NODE         13   DOF  1
   INSTANCE: PART-1-1                                                                        
 LARGEST CORRECTION TO DISP.        8.284E-08   AT NODE        224   DOF  2
   INSTANCE: PART-1-1                                                                        
          THE FORCE     EQUILIBRIUM EQUATIONS HAVE CONVERGED

 ITERATION SUMMARY FOR THE INCREMENT:   1 TOTAL ITERATIONS, OF WHICH
   0 ARE SEVERE DISCONTINUITY ITERATIONS AND  1 ARE EQUILIBRIUM ITERATIONS.

 TIME INCREMENT COMPLETED  5.000E-03,  FRACTION OF STEP COMPLETED  7.996E-02
 STEP TIME COMPLETED       7.996E-02,  TOTAL TIME COMPLETED        7.996E-02


  INCREMENT    37 STARTS. ATTEMPT NUMBER  1, TIME INCREMENT  5.000E-03
 
	SYMMETRIC NEW DIRECT SPARSE SOLVER RUNNING ON
 	1 HOST x 1 MPI RANK PER HOST x 1 THREAD PER RANK
        NUMBER OF EQUATIONS:  5043
        NUMBER OF RHS:        1
        NUMBER OF FLOPS:      2.904e+08
        SOLVER ELAPSED TIME:  17ms

               CONVERGENCE CHECKS FOR EQUILIBRIUM ITERATION     1


 AVERAGE FORCE                      2.593E-04   TIME AVG. FORCE       8.353E-05
 LARGEST SCALED RESIDUAL FORCE      1.413E-11   AT NODE       1269   DOF  2
   INSTANCE: PART-1-1                                                                        
  CORRESPONDING RESIDUAL FORCE      1.413E-11
 LARGEST INCREMENT OF DISP.         2.500E-04   AT NODE         13   DOF  1
   INSTANCE: PART-1-1                                                                        
 LARGEST CORRECTION TO DISP.        8.267E-08   AT NODE        224   DOF  2
   INSTANCE: PART-1-1                                                                        
          THE FORCE     EQUILIBRIUM EQUATIONS HAVE CONVERGED

 ITERATION SUMMARY FOR THE INCREMENT:   1 TOTAL ITERATIONS, OF WHICH
   0 ARE SEVERE DISCONTINUITY ITERATIONS AND  1 ARE EQUILIBRIUM ITERATIONS.

 TIME INCREMENT COMPLETED  5.000E-03,  FRACTION OF STEP COMPLETED  8.496E-02
 STEP TIME COMPLETED       8.496E-02,  TOTAL TIME COMPLETED        8.496E-02


  INCREMENT    38 STARTS. ATTEMPT NUMBER  1, TIME INCREMENT  5.000E-03
 
	SYMMETRIC NEW DIRECT SPARSE SOLVER RUNNING ON
 	1 HOST x 1 MPI RANK PER HOST x 1 THREAD PER RANK
        NUMBER OF EQUATIONS:  5043
        NUMBER OF RHS:        1
        NUMBER OF FLOPS:      2.904e+08
        SOLVER ELAPSED TIME:  18ms

               CONVERGENCE CHECKS FOR EQUILIBRIUM ITERATION     1


 AVERAGE FORCE                      2.742E-04   TIME AVG. FORCE       8.988E-05
 LARGEST SCALED RESIDUAL FORCE      1.409E-11   AT NODE       1269   DOF  2
   INSTANCE: PART-1-1                                                                        
  CORRESPONDING RESIDUAL FORCE      1.409E-11
 LARGEST INCREMENT OF DISP.         2.500E-04   AT NODE         13   DOF  1
   INSTANCE: PART-1-1                                                                        
 LARGEST CORRECTION TO DISP.        8.250E-08   AT NODE        224   DOF  2
   INSTANCE: PART-1-1                                                                        
          THE FORCE     EQUILIBRIUM EQUATIONS HAVE CONVERGED

 ITERATION SUMMARY FOR THE INCREMENT:   1 TOTAL ITERATIONS, OF WHICH
   0 ARE SEVERE DISCONTINUITY ITERATIONS AND  1 ARE EQUILIBRIUM ITERATIONS.

 TIME INCREMENT COMPLETED  5.000E-03,  FRACTION OF STEP COMPLETED  8.996E-02
 STEP TIME COMPLETED       8.996E-02,  TOTAL TIME COMPLETED        8.996E-02


  INCREMENT    39 STARTS. ATTEMPT NUMBER  1, TIME INCREMENT  5.000E-03
 
	SYMMETRIC NEW DIRECT SPARSE SOLVER RUNNING ON
 	1 HOST x 1 MPI RANK PER HOST x 1 THREAD PER RANK
        NUMBER OF EQUATIONS:  5043
        NUMBER OF RHS:        1
        NUMBER OF FLOPS:      2.904e+08
        SOLVER ELAPSED TIME:  18ms

               CONVERGENCE CHECKS FOR EQUILIBRIUM ITERATION     1


 AVERAGE FORCE                      2.889E-04   TIME AVG. FORCE       9.630E-05
 LARGEST SCALED RESIDUAL FORCE      1.405E-11   AT NODE       1269   DOF  2
   INSTANCE: PART-1-1                                                                        
  CORRESPONDING RESIDUAL FORCE      1.405E-11
 LARGEST INCREMENT OF DISP.         2.500E-04   AT NODE         13   DOF  1
   INSTANCE: PART-1-1                                                                        
 LARGEST CORRECTION TO DISP.        8.233E-08   AT NODE        224   DOF  2
   INSTANCE: PART-1-1                                                                        
          THE FORCE     EQUILIBRIUM EQUATIONS HAVE CONVERGED

 ITERATION SUMMARY FOR THE INCREMENT:   1 TOTAL ITERATIONS, OF WHICH
   0 ARE SEVERE DISCONTINUITY ITERATIONS AND  1 ARE EQUILIBRIUM ITERATIONS.

 TIME INCREMENT COMPLETED  5.000E-03,  FRACTION OF STEP COMPLETED  9.496E-02
 STEP TIME COMPLETED       9.496E-02,  TOTAL TIME COMPLETED        9.496E-02


  INCREMENT    40 STARTS. ATTEMPT NUMBER  1, TIME INCREMENT  5.000E-03
 
	SYMMETRIC NEW DIRECT SPARSE SOLVER RUNNING ON
 	1 HOST x 1 MPI RANK PER HOST x 1 THREAD PER RANK
        NUMBER OF EQUATIONS:  5043
        NUMBER OF RHS:        1
        NUMBER OF FLOPS:      2.904e+08
        SOLVER ELAPSED TIME:  18ms

               CONVERGENCE CHECKS FOR EQUILIBRIUM ITERATION     1


 AVERAGE FORCE                      3.036E-04   TIME AVG. FORCE       1.028E-04
 LARGEST SCALED RESIDUAL FORCE      1.402E-11   AT NODE       1269   DOF  2
   INSTANCE: PART-1-1                                                                        
  CORRESPONDING RESIDUAL FORCE      1.402E-11
 LARGEST INCREMENT OF DISP.         2.500E-04   AT NODE         13   DOF  1
   INSTANCE: PART-1-1                                                                        
 LARGEST CORRECTION TO DISP.        8.216E-08   AT NODE        224   DOF  2
   INSTANCE: PART-1-1                                                                        
          THE FORCE     EQUILIBRIUM EQUATIONS HAVE CONVERGED

 ITERATION SUMMARY FOR THE INCREMENT:   1 TOTAL ITERATIONS, OF WHICH
   0 ARE SEVERE DISCONTINUITY ITERATIONS AND  1 ARE EQUILIBRIUM ITERATIONS.

 TIME INCREMENT COMPLETED  5.000E-03,  FRACTION OF STEP COMPLETED  0.100    
 STEP TIME COMPLETED       0.100    ,  TOTAL TIME COMPLETED        0.100    


  INCREMENT    41 STARTS. ATTEMPT NUMBER  1, TIME INCREMENT  5.000E-03
 
	SYMMETRIC NEW DIRECT SPARSE SOLVER RUNNING ON
 	1 HOST x 1 MPI RANK PER HOST x 1 THREAD PER RANK
        NUMBER OF EQUATIONS:  5043
        NUMBER OF RHS:        1
        NUMBER OF FLOPS:      2.904e+08
        SOLVER ELAPSED TIME:  18ms

               CONVERGENCE CHECKS FOR EQUILIBRIUM ITERATION     1


 AVERAGE FORCE                      3.182E-04   TIME AVG. FORCE       1.093E-04
 LARGEST SCALED RESIDUAL FORCE      1.398E-11   AT NODE       1269   DOF  2
   INSTANCE: PART-1-1                                                                        
  CORRESPONDING RESIDUAL FORCE      1.398E-11
 LARGEST INCREMENT OF DISP.         2.500E-04   AT NODE         13   DOF  1
   INSTANCE: PART-1-1                                                                        
 LARGEST CORRECTION TO DISP.        8.199E-08   AT NODE        224   DOF  2
   INSTANCE: PART-1-1                                                                        
          THE FORCE     EQUILIBRIUM EQUATIONS HAVE CONVERGED

 ITERATION SUMMARY FOR THE INCREMENT:   1 TOTAL ITERATIONS, OF WHICH
   0 ARE SEVERE DISCONTINUITY ITERATIONS AND  1 ARE EQUILIBRIUM ITERATIONS.

 TIME INCREMENT COMPLETED  5.000E-03,  FRACTION OF STEP COMPLETED  0.105    
 STEP TIME COMPLETED       0.105    ,  TOTAL TIME COMPLETED        0.105    


  INCREMENT    42 STARTS. ATTEMPT NUMBER  1, TIME INCREMENT  5.000E-03
 
	SYMMETRIC NEW DIRECT SPARSE SOLVER RUNNING ON
 	1 HOST x 1 MPI RANK PER HOST x 1 THREAD PER RANK
        NUMBER OF EQUATIONS:  5043
        NUMBER OF RHS:        1
        NUMBER OF FLOPS:      2.904e+08
        SOLVER ELAPSED TIME:  18ms

               CONVERGENCE CHECKS FOR EQUILIBRIUM ITERATION     1


 AVERAGE FORCE                      3.329E-04   TIME AVG. FORCE       1.159E-04
 LARGEST SCALED RESIDUAL FORCE      1.395E-11   AT NODE       1269   DOF  2
   INSTANCE: PART-1-1                                                                        
  CORRESPONDING RESIDUAL FORCE      1.395E-11
 LARGEST INCREMENT OF DISP.         2.500E-04   AT NODE         13   DOF  1
   INSTANCE: PART-1-1                                                                        
 LARGEST CORRECTION TO DISP.        8.182E-08   AT NODE        224   DOF  2
   INSTANCE: PART-1-1                                                                        
          THE FORCE     EQUILIBRIUM EQUATIONS HAVE CONVERGED

 ITERATION SUMMARY FOR THE INCREMENT:   1 TOTAL ITERATIONS, OF WHICH
   0 ARE SEVERE DISCONTINUITY ITERATIONS AND  1 ARE EQUILIBRIUM ITERATIONS.

 TIME INCREMENT COMPLETED  5.000E-03,  FRACTION OF STEP COMPLETED  0.110    
 STEP TIME COMPLETED       0.110    ,  TOTAL TIME COMPLETED        0.110    


  INCREMENT    43 STARTS. ATTEMPT NUMBER  1, TIME INCREMENT  5.000E-03
 
	SYMMETRIC NEW DIRECT SPARSE SOLVER RUNNING ON
 	1 HOST x 1 MPI RANK PER HOST x 1 THREAD PER RANK
        NUMBER OF EQUATIONS:  5043
        NUMBER OF RHS:        1
        NUMBER OF FLOPS:      2.904e+08
        SOLVER ELAPSED TIME:  17ms

               CONVERGENCE CHECKS FOR EQUILIBRIUM ITERATION     1


 AVERAGE FORCE                      3.474E-04   TIME AVG. FORCE       1.225E-04
 LARGEST SCALED RESIDUAL FORCE      1.391E-11   AT NODE       1269   DOF  2
   INSTANCE: PART-1-1                                                                        
  CORRESPONDING RESIDUAL FORCE      1.391E-11
 LARGEST INCREMENT OF DISP.         2.500E-04   AT NODE         13   DOF  1
   INSTANCE: PART-1-1                                                                        
 LARGEST CORRECTION TO DISP.        8.165E-08   AT NODE        224   DOF  2
   INSTANCE: PART-1-1                                                                        
          THE FORCE     EQUILIBRIUM EQUATIONS HAVE CONVERGED

 ITERATION SUMMARY FOR THE INCREMENT:   1 TOTAL ITERATIONS, OF WHICH
   0 ARE SEVERE DISCONTINUITY ITERATIONS AND  1 ARE EQUILIBRIUM ITERATIONS.

 TIME INCREMENT COMPLETED  5.000E-03,  FRACTION OF STEP COMPLETED  0.115    
 STEP TIME COMPLETED       0.115    ,  TOTAL TIME COMPLETED        0.115    


  INCREMENT    44 STARTS. ATTEMPT NUMBER  1, TIME INCREMENT  5.000E-03
 
	SYMMETRIC NEW DIRECT SPARSE SOLVER RUNNING ON
 	1 HOST x 1 MPI RANK PER HOST x 1 THREAD PER RANK
        NUMBER OF EQUATIONS:  5043
        NUMBER OF RHS:        1
        NUMBER OF FLOPS:      2.904e+08
        SOLVER ELAPSED TIME:  18ms

               CONVERGENCE CHECKS FOR EQUILIBRIUM ITERATION     1


 AVERAGE FORCE                      3.621E-04   TIME AVG. FORCE       1.292E-04
 LARGEST SCALED RESIDUAL FORCE      1.388E-11   AT NODE       1269   DOF  2
   INSTANCE: PART-1-1                                                                        
  CORRESPONDING RESIDUAL FORCE      1.388E-11
 LARGEST INCREMENT OF DISP.         2.500E-04   AT NODE         13   DOF  1
   INSTANCE: PART-1-1                                                                        
 LARGEST CORRECTION TO DISP.        8.148E-08   AT NODE        224   DOF  2
   INSTANCE: PART-1-1                                                                        
          THE FORCE     EQUILIBRIUM EQUATIONS HAVE CONVERGED

 ITERATION SUMMARY FOR THE INCREMENT:   1 TOTAL ITERATIONS, OF WHICH
   0 ARE SEVERE DISCONTINUITY ITERATIONS AND  1 ARE EQUILIBRIUM ITERATIONS.

 TIME INCREMENT COMPLETED  5.000E-03,  FRACTION OF STEP COMPLETED  0.120    
 STEP TIME COMPLETED       0.120    ,  TOTAL TIME COMPLETED        0.120    


  INCREMENT    45 STARTS. ATTEMPT NUMBER  1, TIME INCREMENT  5.000E-03
 
	SYMMETRIC NEW DIRECT SPARSE SOLVER RUNNING ON
 	1 HOST x 1 MPI RANK PER HOST x 1 THREAD PER RANK
        NUMBER OF EQUATIONS:  5043
        NUMBER OF RHS:        1
        NUMBER OF FLOPS:      2.904e+08
        SOLVER ELAPSED TIME:  17ms

               CONVERGENCE CHECKS FOR EQUILIBRIUM ITERATION     1


 AVERAGE FORCE                      3.767E-04   TIME AVG. FORCE       1.358E-04
 LARGEST SCALED RESIDUAL FORCE      1.384E-11   AT NODE       1269   DOF  2
   INSTANCE: PART-1-1                                                                        
  CORRESPONDING RESIDUAL FORCE      1.384E-11
 LARGEST INCREMENT OF DISP.         2.500E-04   AT NODE         13   DOF  1
   INSTANCE: PART-1-1                                                                        
 LARGEST CORRECTION TO DISP.        8.131E-08   AT NODE        224   DOF  2
   INSTANCE: PART-1-1                                                                        
          THE FORCE     EQUILIBRIUM EQUATIONS HAVE CONVERGED

 ITERATION SUMMARY FOR THE INCREMENT:   1 TOTAL ITERATIONS, OF WHICH
   0 ARE SEVERE DISCONTINUITY ITERATIONS AND  1 ARE EQUILIBRIUM ITERATIONS.

 TIME INCREMENT COMPLETED  5.000E-03,  FRACTION OF STEP COMPLETED  0.125    
 STEP TIME COMPLETED       0.125    ,  TOTAL TIME COMPLETED        0.125    


  INCREMENT    46 STARTS. ATTEMPT NUMBER  1, TIME INCREMENT  5.000E-03
 
	SYMMETRIC NEW DIRECT SPARSE SOLVER RUNNING ON
 	1 HOST x 1 MPI RANK PER HOST x 1 THREAD PER RANK
        NUMBER OF EQUATIONS:  5043
        NUMBER OF RHS:        1
        NUMBER OF FLOPS:      2.904e+08
        SOLVER ELAPSED TIME:  18ms

               CONVERGENCE CHECKS FOR EQUILIBRIUM ITERATION     1


 AVERAGE FORCE                      3.914E-04   TIME AVG. FORCE       1.426E-04
 LARGEST SCALED RESIDUAL FORCE      1.381E-11   AT NODE       1269   DOF  2
   INSTANCE: PART-1-1                                                                        
  CORRESPONDING RESIDUAL FORCE      1.381E-11
 LARGEST INCREMENT OF DISP.         2.500E-04   AT NODE         13   DOF  1
   INSTANCE: PART-1-1                                                                        
 LARGEST CORRECTION TO DISP.        8.115E-08   AT NODE        224   DOF  2
   INSTANCE: PART-1-1                                                                        
          THE FORCE     EQUILIBRIUM EQUATIONS HAVE CONVERGED

 ITERATION SUMMARY FOR THE INCREMENT:   1 TOTAL ITERATIONS, OF WHICH
   0 ARE SEVERE DISCONTINUITY ITERATIONS AND  1 ARE EQUILIBRIUM ITERATIONS.

 TIME INCREMENT COMPLETED  5.000E-03,  FRACTION OF STEP COMPLETED  0.130    
 STEP TIME COMPLETED       0.130    ,  TOTAL TIME COMPLETED        0.130    


  INCREMENT    47 STARTS. ATTEMPT NUMBER  1, TIME INCREMENT  5.000E-03
 
	SYMMETRIC NEW DIRECT SPARSE SOLVER RUNNING ON
 	1 HOST x 1 MPI RANK PER HOST x 1 THREAD PER RANK
        NUMBER OF EQUATIONS:  5043
        NUMBER OF RHS:        1
        NUMBER OF FLOPS:      2.904e+08
        SOLVER ELAPSED TIME:  17ms

               CONVERGENCE CHECKS FOR EQUILIBRIUM ITERATION     1


 AVERAGE FORCE                      4.059E-04   TIME AVG. FORCE       1.493E-04
 LARGEST SCALED RESIDUAL FORCE      1.377E-11   AT NODE       1269   DOF  2
   INSTANCE: PART-1-1                                                                        
  CORRESPONDING RESIDUAL FORCE      1.377E-11
 LARGEST INCREMENT OF DISP.         2.500E-04   AT NODE         13   DOF  1
   INSTANCE: PART-1-1                                                                        
 LARGEST CORRECTION TO DISP.        8.098E-08   AT NODE        224   DOF  2
   INSTANCE: PART-1-1                                                                        
          THE FORCE     EQUILIBRIUM EQUATIONS HAVE CONVERGED

 ITERATION SUMMARY FOR THE INCREMENT:   1 TOTAL ITERATIONS, OF WHICH
   0 ARE SEVERE DISCONTINUITY ITERATIONS AND  1 ARE EQUILIBRIUM ITERATIONS.

 TIME INCREMENT COMPLETED  5.000E-03,  FRACTION OF STEP COMPLETED  0.135    
 STEP TIME COMPLETED       0.135    ,  TOTAL TIME COMPLETED        0.135    


  INCREMENT    48 STARTS. ATTEMPT NUMBER  1, TIME INCREMENT  5.000E-03
 
	SYMMETRIC NEW DIRECT SPARSE SOLVER RUNNING ON
 	1 HOST x 1 MPI RANK PER HOST x 1 THREAD PER RANK
        NUMBER OF EQUATIONS:  5043
        NUMBER OF RHS:        1
        NUMBER OF FLOPS:      2.904e+08
        SOLVER ELAPSED TIME:  18ms

               CONVERGENCE CHECKS FOR EQUILIBRIUM ITERATION     1


 AVERAGE FORCE                      4.204E-04   TIME AVG. FORCE       1.561E-04
 LARGEST SCALED RESIDUAL FORCE      1.374E-11   AT NODE       1269   DOF  2
   INSTANCE: PART-1-1                                                                        
  CORRESPONDING RESIDUAL FORCE      1.374E-11
 LARGEST INCREMENT OF DISP.         2.500E-04   AT NODE         13   DOF  1
   INSTANCE: PART-1-1                                                                        
 LARGEST CORRECTION TO DISP.        8.081E-08   AT NODE        224   DOF  2
   INSTANCE: PART-1-1                                                                        
          THE FORCE     EQUILIBRIUM EQUATIONS HAVE CONVERGED

 ITERATION SUMMARY FOR THE INCREMENT:   1 TOTAL ITERATIONS, OF WHICH
   0 ARE SEVERE DISCONTINUITY ITERATIONS AND  1 ARE EQUILIBRIUM ITERATIONS.

 TIME INCREMENT COMPLETED  5.000E-03,  FRACTION OF STEP COMPLETED  0.140    
 STEP TIME COMPLETED       0.140    ,  TOTAL TIME COMPLETED        0.140    


  INCREMENT    49 STARTS. ATTEMPT NUMBER  1, TIME INCREMENT  5.000E-03
 
	SYMMETRIC NEW DIRECT SPARSE SOLVER RUNNING ON
 	1 HOST x 1 MPI RANK PER HOST x 1 THREAD PER RANK
        NUMBER OF EQUATIONS:  5043
        NUMBER OF RHS:        1
        NUMBER OF FLOPS:      2.904e+08
        SOLVER ELAPSED TIME:  17ms

               CONVERGENCE CHECKS FOR EQUILIBRIUM ITERATION     1


 AVERAGE FORCE                      4.349E-04   TIME AVG. FORCE       1.629E-04
 LARGEST SCALED RESIDUAL FORCE      1.370E-11   AT NODE       1269   DOF  2
   INSTANCE: PART-1-1                                                                        
  CORRESPONDING RESIDUAL FORCE      1.370E-11
 LARGEST INCREMENT OF DISP.         2.500E-04   AT NODE         13   DOF  1
   INSTANCE: PART-1-1                                                                        
 LARGEST CORRECTION TO DISP.        8.065E-08   AT NODE        224   DOF  2
   INSTANCE: PART-1-1                                                                        
          THE FORCE     EQUILIBRIUM EQUATIONS HAVE CONVERGED

 ITERATION SUMMARY FOR THE INCREMENT:   1 TOTAL ITERATIONS, OF WHICH
   0 ARE SEVERE DISCONTINUITY ITERATIONS AND  1 ARE EQUILIBRIUM ITERATIONS.

 TIME INCREMENT COMPLETED  5.000E-03,  FRACTION OF STEP COMPLETED  0.145    
 STEP TIME COMPLETED       0.145    ,  TOTAL TIME COMPLETED        0.145    


  INCREMENT    50 STARTS. ATTEMPT NUMBER  1, TIME INCREMENT  5.000E-03
 
	SYMMETRIC NEW DIRECT SPARSE SOLVER RUNNING ON
 	1 HOST x 1 MPI RANK PER HOST x 1 THREAD PER RANK
        NUMBER OF EQUATIONS:  5043
        NUMBER OF RHS:        1
        NUMBER OF FLOPS:      2.904e+08
        SOLVER ELAPSED TIME:  17ms

               CONVERGENCE CHECKS FOR EQUILIBRIUM ITERATION     1


 AVERAGE FORCE                      4.493E-04   TIME AVG. FORCE       1.697E-04
 LARGEST SCALED RESIDUAL FORCE      1.367E-11   AT NODE       1269   DOF  2
   INSTANCE: PART-1-1                                                                        
  CORRESPONDING RESIDUAL FORCE      1.367E-11
 LARGEST INCREMENT OF DISP.         2.500E-04   AT NODE         13   DOF  1
   INSTANCE: PART-1-1                                                                        
 LARGEST CORRECTION TO DISP.        8.048E-08   AT NODE        224   DOF  2
   INSTANCE: PART-1-1                                                                        
          THE FORCE     EQUILIBRIUM EQUATIONS HAVE CONVERGED

 ITERATION SUMMARY FOR THE INCREMENT:   1 TOTAL ITERATIONS, OF WHICH
   0 ARE SEVERE DISCONTINUITY ITERATIONS AND  1 ARE EQUILIBRIUM ITERATIONS.

 TIME INCREMENT COMPLETED  5.000E-03,  FRACTION OF STEP COMPLETED  0.150    
 STEP TIME COMPLETED       0.150    ,  TOTAL TIME COMPLETED        0.150    


  INCREMENT    51 STARTS. ATTEMPT NUMBER  1, TIME INCREMENT  5.000E-03
 
	SYMMETRIC NEW DIRECT SPARSE SOLVER RUNNING ON
 	1 HOST x 1 MPI RANK PER HOST x 1 THREAD PER RANK
        NUMBER OF EQUATIONS:  5043
        NUMBER OF RHS:        1
        NUMBER OF FLOPS:      2.904e+08
        SOLVER ELAPSED TIME:  18ms

               CONVERGENCE CHECKS FOR EQUILIBRIUM ITERATION     1


 AVERAGE FORCE                      4.637E-04   TIME AVG. FORCE       1.766E-04
 LARGEST SCALED RESIDUAL FORCE      1.363E-11   AT NODE       1269   DOF  2
   INSTANCE: PART-1-1                                                                        
  CORRESPONDING RESIDUAL FORCE      1.363E-11
 LARGEST INCREMENT OF DISP.         2.500E-04   AT NODE         13   DOF  1
   INSTANCE: PART-1-1                                                                        
 LARGEST CORRECTION TO DISP.        8.032E-08   AT NODE        224   DOF  2
   INSTANCE: PART-1-1                                                                        
          THE FORCE     EQUILIBRIUM EQUATIONS HAVE CONVERGED

 ITERATION SUMMARY FOR THE INCREMENT:   1 TOTAL ITERATIONS, OF WHICH
   0 ARE SEVERE DISCONTINUITY ITERATIONS AND  1 ARE EQUILIBRIUM ITERATIONS.

 TIME INCREMENT COMPLETED  5.000E-03,  FRACTION OF STEP COMPLETED  0.155    
 STEP TIME COMPLETED       0.155    ,  TOTAL TIME COMPLETED        0.155    


  INCREMENT    52 STARTS. ATTEMPT NUMBER  1, TIME INCREMENT  5.000E-03
 
[...]
  CORRESPONDING RESIDUAL FORCE     -7.631E-11
 LARGEST INCREMENT OF DISP.         2.500E-04   AT NODE         13   DOF  1
   INSTANCE: PART-1-1                                                                        
 LARGEST CORRECTION TO DISP.        5.964E-08   AT NODE         25   DOF  2
   INSTANCE: PART-1-1                                                                        
          THE FORCE     EQUILIBRIUM EQUATIONS HAVE CONVERGED

 ITERATION SUMMARY FOR THE INCREMENT:   1 TOTAL ITERATIONS, OF WHICH
   0 ARE SEVERE DISCONTINUITY ITERATIONS AND  1 ARE EQUILIBRIUM ITERATIONS.

 TIME INCREMENT COMPLETED  5.000E-03,  FRACTION OF STEP COMPLETED  0.940    
 STEP TIME COMPLETED       0.940    ,  TOTAL TIME COMPLETED        0.940    


  INCREMENT   209 STARTS. ATTEMPT NUMBER  1, TIME INCREMENT  5.000E-03
 
	SYMMETRIC NEW DIRECT SPARSE SOLVER RUNNING ON
 	1 HOST x 1 MPI RANK PER HOST x 1 THREAD PER RANK
        NUMBER OF EQUATIONS:  5043
        NUMBER OF RHS:        1
        NUMBER OF FLOPS:      2.904e+08
        SOLVER ELAPSED TIME:  17ms

               CONVERGENCE CHECKS FOR EQUILIBRIUM ITERATION     1


 AVERAGE FORCE                      2.605E-03   TIME AVG. FORCE       1.265E-03
 LARGEST SCALED RESIDUAL FORCE     -7.696E-11   AT NODE       1177   DOF  1
   INSTANCE: PART-1-1                                                                        
  CORRESPONDING RESIDUAL FORCE     -7.696E-11
 LARGEST INCREMENT OF DISP.         2.500E-04   AT NODE         13   DOF  1
   INSTANCE: PART-1-1                                                                        
 LARGEST CORRECTION TO DISP.        5.954E-08   AT NODE         25   DOF  2
   INSTANCE: PART-1-1                                                                        
          THE FORCE     EQUILIBRIUM EQUATIONS HAVE CONVERGED

 ITERATION SUMMARY FOR THE INCREMENT:   1 TOTAL ITERATIONS, OF WHICH
   0 ARE SEVERE DISCONTINUITY ITERATIONS AND  1 ARE EQUILIBRIUM ITERATIONS.

 TIME INCREMENT COMPLETED  5.000E-03,  FRACTION OF STEP COMPLETED  0.945    
 STEP TIME COMPLETED       0.945    ,  TOTAL TIME COMPLETED        0.945    


  INCREMENT   210 STARTS. ATTEMPT NUMBER  1, TIME INCREMENT  5.000E-03
 
	SYMMETRIC NEW DIRECT SPARSE SOLVER RUNNING ON
 	1 HOST x 1 MPI RANK PER HOST x 1 THREAD PER RANK
        NUMBER OF EQUATIONS:  5043
        NUMBER OF RHS:        1
        NUMBER OF FLOPS:      2.904e+08
        SOLVER ELAPSED TIME:  17ms

               CONVERGENCE CHECKS FOR EQUILIBRIUM ITERATION     1


 AVERAGE FORCE                      2.618E-03   TIME AVG. FORCE       1.272E-03
 LARGEST SCALED RESIDUAL FORCE     -7.760E-11   AT NODE       1177   DOF  1
   INSTANCE: PART-1-1                                                                        
  CORRESPONDING RESIDUAL FORCE     -7.760E-11
 LARGEST INCREMENT OF DISP.         2.500E-04   AT NODE         13   DOF  1
   INSTANCE: PART-1-1                                                                        
 LARGEST CORRECTION TO DISP.        5.944E-08   AT NODE         25   DOF  2
   INSTANCE: PART-1-1                                                                        
          THE FORCE     EQUILIBRIUM EQUATIONS HAVE CONVERGED

 ITERATION SUMMARY FOR THE INCREMENT:   1 TOTAL ITERATIONS, OF WHICH
   0 ARE SEVERE DISCONTINUITY ITERATIONS AND  1 ARE EQUILIBRIUM ITERATIONS.

 TIME INCREMENT COMPLETED  5.000E-03,  FRACTION OF STEP COMPLETED  0.950    
 STEP TIME COMPLETED       0.950    ,  TOTAL TIME COMPLETED        0.950    


  INCREMENT   211 STARTS. ATTEMPT NUMBER  1, TIME INCREMENT  5.000E-03
 
	SYMMETRIC NEW DIRECT SPARSE SOLVER RUNNING ON
 	1 HOST x 1 MPI RANK PER HOST x 1 THREAD PER RANK
        NUMBER OF EQUATIONS:  5043
        NUMBER OF RHS:        1
        NUMBER OF FLOPS:      2.904e+08
        SOLVER ELAPSED TIME:  17ms

               CONVERGENCE CHECKS FOR EQUILIBRIUM ITERATION     1


 AVERAGE FORCE                      2.631E-03   TIME AVG. FORCE       1.278E-03
 LARGEST SCALED RESIDUAL FORCE     -7.825E-11   AT NODE       1177   DOF  1
   INSTANCE: PART-1-1                                                                        
  CORRESPONDING RESIDUAL FORCE     -7.825E-11
 LARGEST INCREMENT OF DISP.         2.500E-04   AT NODE         13   DOF  1
   INSTANCE: PART-1-1                                                                        
 LARGEST CORRECTION TO DISP.        5.934E-08   AT NODE         25   DOF  2
   INSTANCE: PART-1-1                                                                        
          THE FORCE     EQUILIBRIUM EQUATIONS HAVE CONVERGED

 ITERATION SUMMARY FOR THE INCREMENT:   1 TOTAL ITERATIONS, OF WHICH
   0 ARE SEVERE DISCONTINUITY ITERATIONS AND  1 ARE EQUILIBRIUM ITERATIONS.

 TIME INCREMENT COMPLETED  5.000E-03,  FRACTION OF STEP COMPLETED  0.955    
 STEP TIME COMPLETED       0.955    ,  TOTAL TIME COMPLETED        0.955    


  INCREMENT   212 STARTS. ATTEMPT NUMBER  1, TIME INCREMENT  5.000E-03
 
	SYMMETRIC NEW DIRECT SPARSE SOLVER RUNNING ON
 	1 HOST x 1 MPI RANK PER HOST x 1 THREAD PER RANK
        NUMBER OF EQUATIONS:  5043
        NUMBER OF RHS:        1
        NUMBER OF FLOPS:      2.904e+08
        SOLVER ELAPSED TIME:  18ms

               CONVERGENCE CHECKS FOR EQUILIBRIUM ITERATION     1


 AVERAGE FORCE                      2.644E-03   TIME AVG. FORCE       1.285E-03
 LARGEST SCALED RESIDUAL FORCE     -7.890E-11   AT NODE       1177   DOF  1
   INSTANCE: PART-1-1                                                                        
  CORRESPONDING RESIDUAL FORCE     -7.890E-11
 LARGEST INCREMENT OF DISP.         2.500E-04   AT NODE         13   DOF  1
   INSTANCE: PART-1-1                                                                        
 LARGEST CORRECTION TO DISP.        5.923E-08   AT NODE         25   DOF  2
   INSTANCE: PART-1-1                                                                        
          THE FORCE     EQUILIBRIUM EQUATIONS HAVE CONVERGED

 ITERATION SUMMARY FOR THE INCREMENT:   1 TOTAL ITERATIONS, OF WHICH
   0 ARE SEVERE DISCONTINUITY ITERATIONS AND  1 ARE EQUILIBRIUM ITERATIONS.

 TIME INCREMENT COMPLETED  5.000E-03,  FRACTION OF STEP COMPLETED  0.960    
 STEP TIME COMPLETED       0.960    ,  TOTAL TIME COMPLETED        0.960    


  INCREMENT   213 STARTS. ATTEMPT NUMBER  1, TIME INCREMENT  5.000E-03
 
	SYMMETRIC NEW DIRECT SPARSE SOLVER RUNNING ON
 	1 HOST x 1 MPI RANK PER HOST x 1 THREAD PER RANK
        NUMBER OF EQUATIONS:  5043
        NUMBER OF RHS:        1
        NUMBER OF FLOPS:      2.904e+08
        SOLVER ELAPSED TIME:  17ms

               CONVERGENCE CHECKS FOR EQUILIBRIUM ITERATION     1


 AVERAGE FORCE                      2.656E-03   TIME AVG. FORCE       1.292E-03
 LARGEST SCALED RESIDUAL FORCE     -7.955E-11   AT NODE       1177   DOF  1
   INSTANCE: PART-1-1                                                                        
  CORRESPONDING RESIDUAL FORCE     -7.955E-11
 LARGEST INCREMENT OF DISP.         2.500E-04   AT NODE         13   DOF  1
   INSTANCE: PART-1-1                                                                        
 LARGEST CORRECTION TO DISP.        5.913E-08   AT NODE         25   DOF  2
   INSTANCE: PART-1-1                                                                        
          THE FORCE     EQUILIBRIUM EQUATIONS HAVE CONVERGED

 ITERATION SUMMARY FOR THE INCREMENT:   1 TOTAL ITERATIONS, OF WHICH
   0 ARE SEVERE DISCONTINUITY ITERATIONS AND  1 ARE EQUILIBRIUM ITERATIONS.

 TIME INCREMENT COMPLETED  5.000E-03,  FRACTION OF STEP COMPLETED  0.965    
 STEP TIME COMPLETED       0.965    ,  TOTAL TIME COMPLETED        0.965    


  INCREMENT   214 STARTS. ATTEMPT NUMBER  1, TIME INCREMENT  5.000E-03
 
	SYMMETRIC NEW DIRECT SPARSE SOLVER RUNNING ON
 	1 HOST x 1 MPI RANK PER HOST x 1 THREAD PER RANK
        NUMBER OF EQUATIONS:  5043
        NUMBER OF RHS:        1
        NUMBER OF FLOPS:      2.904e+08
        SOLVER ELAPSED TIME:  18ms

               CONVERGENCE CHECKS FOR EQUILIBRIUM ITERATION     1


 AVERAGE FORCE                      2.669E-03   TIME AVG. FORCE       1.298E-03
 LARGEST SCALED RESIDUAL FORCE     -8.021E-11   AT NODE       1177   DOF  1
   INSTANCE: PART-1-1                                                                        
  CORRESPONDING RESIDUAL FORCE     -8.021E-11
 LARGEST INCREMENT OF DISP.         2.500E-04   AT NODE         13   DOF  1
   INSTANCE: PART-1-1                                                                        
 LARGEST CORRECTION TO DISP.        5.903E-08   AT NODE         25   DOF  2
   INSTANCE: PART-1-1                                                                        
          THE FORCE     EQUILIBRIUM EQUATIONS HAVE CONVERGED

 ITERATION SUMMARY FOR THE INCREMENT:   1 TOTAL ITERATIONS, OF WHICH
   0 ARE SEVERE DISCONTINUITY ITERATIONS AND  1 ARE EQUILIBRIUM ITERATIONS.

 TIME INCREMENT COMPLETED  5.000E-03,  FRACTION OF STEP COMPLETED  0.970    
 STEP TIME COMPLETED       0.970    ,  TOTAL TIME COMPLETED        0.970    


  INCREMENT   215 STARTS. ATTEMPT NUMBER  1, TIME INCREMENT  5.000E-03
 
	SYMMETRIC NEW DIRECT SPARSE SOLVER RUNNING ON
 	1 HOST x 1 MPI RANK PER HOST x 1 THREAD PER RANK
        NUMBER OF EQUATIONS:  5043
        NUMBER OF RHS:        1
        NUMBER OF FLOPS:      2.904e+08
        SOLVER ELAPSED TIME:  17ms

               CONVERGENCE CHECKS FOR EQUILIBRIUM ITERATION     1


 AVERAGE FORCE                      2.682E-03   TIME AVG. FORCE       1.305E-03
 LARGEST SCALED RESIDUAL FORCE     -8.086E-11   AT NODE       1177   DOF  1
   INSTANCE: PART-1-1                                                                        
  CORRESPONDING RESIDUAL FORCE     -8.086E-11
 LARGEST INCREMENT OF DISP.         2.500E-04   AT NODE         13   DOF  1
   INSTANCE: PART-1-1                                                                        
 LARGEST CORRECTION TO DISP.        5.893E-08   AT NODE         25   DOF  2
   INSTANCE: PART-1-1                                                                        
          THE FORCE     EQUILIBRIUM EQUATIONS HAVE CONVERGED

 ITERATION SUMMARY FOR THE INCREMENT:   1 TOTAL ITERATIONS, OF WHICH
   0 ARE SEVERE DISCONTINUITY ITERATIONS AND  1 ARE EQUILIBRIUM ITERATIONS.

 TIME INCREMENT COMPLETED  5.000E-03,  FRACTION OF STEP COMPLETED  0.975    
 STEP TIME COMPLETED       0.975    ,  TOTAL TIME COMPLETED        0.975    


  INCREMENT   216 STARTS. ATTEMPT NUMBER  1, TIME INCREMENT  5.000E-03
 
	SYMMETRIC NEW DIRECT SPARSE SOLVER RUNNING ON
 	1 HOST x 1 MPI RANK PER HOST x 1 THREAD PER RANK
        NUMBER OF EQUATIONS:  5043
        NUMBER OF RHS:        1
        NUMBER OF FLOPS:      2.904e+08
        SOLVER ELAPSED TIME:  18ms

               CONVERGENCE CHECKS FOR EQUILIBRIUM ITERATION     1


 AVERAGE FORCE                      2.695E-03   TIME AVG. FORCE       1.312E-03
 LARGEST SCALED RESIDUAL FORCE     -8.152E-11   AT NODE       1177   DOF  1
   INSTANCE: PART-1-1                                                                        
  CORRESPONDING RESIDUAL FORCE     -8.152E-11
 LARGEST INCREMENT OF DISP.         2.500E-04   AT NODE         13   DOF  1
   INSTANCE: PART-1-1                                                                        
 LARGEST CORRECTION TO DISP.        5.883E-08   AT NODE         25   DOF  2
   INSTANCE: PART-1-1                                                                        
          THE FORCE     EQUILIBRIUM EQUATIONS HAVE CONVERGED

 ITERATION SUMMARY FOR THE INCREMENT:   1 TOTAL ITERATIONS, OF WHICH
   0 ARE SEVERE DISCONTINUITY ITERATIONS AND  1 ARE EQUILIBRIUM ITERATIONS.

 TIME INCREMENT COMPLETED  5.000E-03,  FRACTION OF STEP COMPLETED  0.980    
 STEP TIME COMPLETED       0.980    ,  TOTAL TIME COMPLETED        0.980    


  INCREMENT   217 STARTS. ATTEMPT NUMBER  1, TIME INCREMENT  5.000E-03
 
	SYMMETRIC NEW DIRECT SPARSE SOLVER RUNNING ON
 	1 HOST x 1 MPI RANK PER HOST x 1 THREAD PER RANK
        NUMBER OF EQUATIONS:  5043
        NUMBER OF RHS:        1
        NUMBER OF FLOPS:      2.904e+08
        SOLVER ELAPSED TIME:  17ms

               CONVERGENCE CHECKS FOR EQUILIBRIUM ITERATION     1


 AVERAGE FORCE                      2.707E-03   TIME AVG. FORCE       1.318E-03
 LARGEST SCALED RESIDUAL FORCE     -8.218E-11   AT NODE       1177   DOF  1
   INSTANCE: PART-1-1                                                                        
  CORRESPONDING RESIDUAL FORCE     -8.218E-11
 LARGEST INCREMENT OF DISP.         2.500E-04   AT NODE         13   DOF  1
   INSTANCE: PART-1-1                                                                        
 LARGEST CORRECTION TO DISP.        5.873E-08   AT NODE         25   DOF  2
   INSTANCE: PART-1-1                                                                        
          THE FORCE     EQUILIBRIUM EQUATIONS HAVE CONVERGED

 ITERATION SUMMARY FOR THE INCREMENT:   1 TOTAL ITERATIONS, OF WHICH
   0 ARE SEVERE DISCONTINUITY ITERATIONS AND  1 ARE EQUILIBRIUM ITERATIONS.

 TIME INCREMENT COMPLETED  5.000E-03,  FRACTION OF STEP COMPLETED  0.985    
 STEP TIME COMPLETED       0.985    ,  TOTAL TIME COMPLETED        0.985    


  INCREMENT   218 STARTS. ATTEMPT NUMBER  1, TIME INCREMENT  5.000E-03
 
	SYMMETRIC NEW DIRECT SPARSE SOLVER RUNNING ON
 	1 HOST x 1 MPI RANK PER HOST x 1 THREAD PER RANK
        NUMBER OF EQUATIONS:  5043
        NUMBER OF RHS:        1
        NUMBER OF FLOPS:      2.904e+08
        SOLVER ELAPSED TIME:  18ms

               CONVERGENCE CHECKS FOR EQUILIBRIUM ITERATION     1


 AVERAGE FORCE                      2.720E-03   TIME AVG. FORCE       1.325E-03
 LARGEST SCALED RESIDUAL FORCE     -8.284E-11   AT NODE       1177   DOF  1
   INSTANCE: PART-1-1                                                                        
  CORRESPONDING RESIDUAL FORCE     -8.284E-11
 LARGEST INCREMENT OF DISP.         2.500E-04   AT NODE         13   DOF  1
   INSTANCE: PART-1-1                                                                        
 LARGEST CORRECTION TO DISP.        5.863E-08   AT NODE         25   DOF  2
   INSTANCE: PART-1-1                                                                        
          THE FORCE     EQUILIBRIUM EQUATIONS HAVE CONVERGED

 ITERATION SUMMARY FOR THE INCREMENT:   1 TOTAL ITERATIONS, OF WHICH
   0 ARE SEVERE DISCONTINUITY ITERATIONS AND  1 ARE EQUILIBRIUM ITERATIONS.

 TIME INCREMENT COMPLETED  5.000E-03,  FRACTION OF STEP COMPLETED  0.990    
 STEP TIME COMPLETED       0.990    ,  TOTAL TIME COMPLETED        0.990    


  INCREMENT   219 STARTS. ATTEMPT NUMBER  1, TIME INCREMENT  5.000E-03
 
	SYMMETRIC NEW DIRECT SPARSE SOLVER RUNNING ON
 	1 HOST x 1 MPI RANK PER HOST x 1 THREAD PER RANK
        NUMBER OF EQUATIONS:  5043
        NUMBER OF RHS:        1
        NUMBER OF FLOPS:      2.904e+08
        SOLVER ELAPSED TIME:  17ms

               CONVERGENCE CHECKS FOR EQUILIBRIUM ITERATION     1


 AVERAGE FORCE                      2.733E-03   TIME AVG. FORCE       1.332E-03
 LARGEST SCALED RESIDUAL FORCE     -8.351E-11   AT NODE       1177   DOF  1
   INSTANCE: PART-1-1                                                                        
  CORRESPONDING RESIDUAL FORCE     -8.351E-11
 LARGEST INCREMENT OF DISP.         2.500E-04   AT NODE         13   DOF  1
   INSTANCE: PART-1-1                                                                        
 LARGEST CORRECTION TO DISP.        5.853E-08   AT NODE         25   DOF  2
   INSTANCE: PART-1-1                                                                        
          THE FORCE     EQUILIBRIUM EQUATIONS HAVE CONVERGED

 ITERATION SUMMARY FOR THE INCREMENT:   1 TOTAL ITERATIONS, OF WHICH
   0 ARE SEVERE DISCONTINUITY ITERATIONS AND  1 ARE EQUILIBRIUM ITERATIONS.

 TIME INCREMENT COMPLETED  5.000E-03,  FRACTION OF STEP COMPLETED  0.995    
 STEP TIME COMPLETED       0.995    ,  TOTAL TIME COMPLETED        0.995    


  INCREMENT   220 STARTS. ATTEMPT NUMBER  1, TIME INCREMENT  5.000E-03
 
	SYMMETRIC NEW DIRECT SPARSE SOLVER RUNNING ON
 	1 HOST x 1 MPI RANK PER HOST x 1 THREAD PER RANK
        NUMBER OF EQUATIONS:  5043
        NUMBER OF RHS:        1
        NUMBER OF FLOPS:      2.904e+08
        SOLVER ELAPSED TIME:  17ms

               CONVERGENCE CHECKS FOR EQUILIBRIUM ITERATION     1


 AVERAGE FORCE                      2.746E-03   TIME AVG. FORCE       1.338E-03
 LARGEST SCALED RESIDUAL FORCE     -8.418E-11   AT NODE       1177   DOF  1
   INSTANCE: PART-1-1                                                                        
  CORRESPONDING RESIDUAL FORCE     -8.418E-11
 LARGEST INCREMENT OF DISP.         2.500E-04   AT NODE         13   DOF  1
   INSTANCE: PART-1-1                                                                        
 LARGEST CORRECTION TO DISP.        5.843E-08   AT NODE         25   DOF  2
   INSTANCE: PART-1-1                                                                        
          THE FORCE     EQUILIBRIUM EQUATIONS HAVE CONVERGED

 ITERATION SUMMARY FOR THE INCREMENT:   1 TOTAL ITERATIONS, OF WHICH
   0 ARE SEVERE DISCONTINUITY ITERATIONS AND  1 ARE EQUILIBRIUM ITERATIONS.

 TIME INCREMENT COMPLETED  5.000E-03,  FRACTION OF STEP COMPLETED   1.00    
 STEP TIME COMPLETED        1.00    ,  TOTAL TIME COMPLETED         1.00    


  INCREMENT   221 STARTS. ATTEMPT NUMBER  1, TIME INCREMENT  3.734E-05
 
	SYMMETRIC NEW DIRECT SPARSE SOLVER RUNNING ON
 	1 HOST x 1 MPI RANK PER HOST x 1 THREAD PER RANK
        NUMBER OF EQUATIONS:  5043
        NUMBER OF RHS:        1
        NUMBER OF FLOPS:      2.904e+08
        SOLVER ELAPSED TIME:  17ms

               CONVERGENCE CHECKS FOR EQUILIBRIUM ITERATION     1


 AVERAGE FORCE                      2.746E-03   TIME AVG. FORCE       1.345E-03
 LARGEST SCALED RESIDUAL FORCE     -1.163E-13   AT NODE        705   DOF  1
   INSTANCE: PART-1-1                                                                        
  CORRESPONDING RESIDUAL FORCE     -1.163E-13
 LARGEST INCREMENT OF DISP.         1.867E-06   AT NODE         13   DOF  1
   INSTANCE: PART-1-1                                                                        
 LARGEST CORRECTION TO DISP.        1.735E-10   AT NODE         25   DOF  2
   INSTANCE: PART-1-1                                                                        
          THE FORCE     EQUILIBRIUM RESPONSE WAS LINEAR IN THIS INCREMENT

 ITERATION SUMMARY FOR THE INCREMENT:   1 TOTAL ITERATIONS, OF WHICH
   0 ARE SEVERE DISCONTINUITY ITERATIONS AND  1 ARE EQUILIBRIUM ITERATIONS.

 TIME INCREMENT COMPLETED  3.734E-05,  FRACTION OF STEP COMPLETED   1.00    
 STEP TIME COMPLETED        1.00    ,  TOTAL TIME COMPLETED         1.00    


          THE ANALYSIS HAS BEEN COMPLETED



     ANALYSIS SUMMARY:
     TOTAL OF        221  INCREMENTS
                       0  CUTBACKS IN AUTOMATIC INCREMENTATION
                     221  ITERATIONS INCLUDING CONTACT ITERATIONS IF PRESENT
                     221  PASSES THROUGH THE EQUATION SOLVER OF WHICH 
                     221  INVOLVE MATRIX DECOMPOSITION, INCLUDING
                       0  DECOMPOSITION(S) OF THE MASS MATRIX
                       1  REORDERING OF EQUATIONS TO MINIMIZE WAVEFRONT
                       0  ADDITIONAL RESIDUAL EVALUATIONS FOR LINE SEARCHES
                       0  ADDITIONAL OPERATOR EVALUATIONS FOR LINE SEARCHES
                       1  WARNING MESSAGES DURING USER INPUT PROCESSING
                       8  WARNING MESSAGES DURING ANALYSIS
                       0  ANALYSIS WARNINGS ARE NUMERICAL PROBLEM MESSAGES
                       0  ANALYSIS WARNINGS ARE NEGATIVE EIGENVALUE MESSAGES
                       0  ERROR MESSAGES



     JOB TIME SUMMARY
       USER TIME (SEC)      =     3.73E+02
       SYSTEM TIME (SEC)    =      2.6    
       TOTAL CPU TIME (SEC) =     3.75E+02
       WALLCLOCK TIME (SEC) =          380
       MEMORY PEAK (GB)     =            2
