*Heading
 OneFifthMesh-periodic 
** Job name: test Model name: Model-1
** Generated by: Abaqus/CAE 2024
*Preprint, echo=NO, model=NO, history=NO, contact=NO
**
** PARTS
**
*Part, name=Part-1
*Node
      1,           1.,           1.,  0.100000001
      2,           1.,           0.,  0.100000001
      3,           1.,           0.,           0.
      4,           1.,           1.,           0.
      5,           0.,           0.,  0.100000001
      6,           0.,           0.,           0.
      7,           0.,           1.,           0.
      8,           0.,           1.,  0.100000001
      9,  0.382391751,  0.514593184, 0.0504251644
     10,  0.191195875,  0.757296562, 0.0252125822
     11,  0.691195846,  0.257296592, 0.0252125822
     12,          0.5,          0.5,           0.
     13,          0.5,           0.,           0.
     14,           0.,          0.5,           0.
     15,  0.191195875,  0.257296592, 0.0252125822
     16,          0.5,           1.,           0.
     17,  0.691195846,  0.757296562, 0.0252125822
     18,  0.191195875,  0.757296562, 0.0752125829
     19,           0.,           1., 0.0500000007
     20,          0.5,           1., 0.0500000007
** ... 15 like lines cut
*Element, type=C3D10T
 1,  7,  3,  9,  6, 12, 11, 10, 14, 13, 15
 2,  7,  9,  4,  8, 10, 17, 16, 19, 18, 20
 3,  6,  9,  7,  5, 15, 10, 14, 22, 21, 23
 4,  1,  9,  2,  8, 26, 25, 24, 27, 18, 28
 5,  3,  6,  2,  9, 13, 30, 29, 11, 15, 25
 6,  8,  7,  9,  5, 19, 10, 18, 31, 23, 21
 7,  3,  7,  9,  4, 12, 10, 11, 32, 16, 17
 8,  5,  2,  9,  8, 33, 25, 21, 31, 28, 18
 9,  9,  6,  2,  5, 15, 30, 25, 21, 22, 33
10,  4,  9,  1,  8, 17, 26, 34, 20, 18, 27
11,  3,  4,  9,  1, 32, 17, 11, 35, 34, 26
12,  3,  1,  9,  2, 35, 26, 11, 29, 24, 25
*Nset, nset=Set-1, generate
  1,  35,   1
*Elset, elset=Set-1, generate
  1,  12,   1
*Nset, nset=MAT1_GRN1, generate
  1,  35,   1
*Elset, elset=MAT1_GRN1, generate
  1,  12,   1
** Section: Section-1
*Solid Section, elset=MAT1_GRN1, material=MAT1_GRN1
,
*End Part 
**
** ASSEMBLY 
** 
*Assembly, name=Assembly 
**   
*Instance, name=Part-1-1, part=Part-1 
*End Instance 
** 
*Nset, nset=Set-102, instance=Part-1-1, generate 
  1,  35, 1 
*Elset, elset=Set-102, instance=Part-1-1
  1,  12,   1
*Nset, nset=Set-1, instance=Part-1-1
  5,  6,  7,  8, 14, 19, 22, 23, 31
*Elset, elset=Set-1, instance=Part-1-1
 3, 6
*Nset, nset=Set-2, instance=Part-1-1
  1,  2,  3,  4, 24, 29, 32, 34, 35
*Elset, elset=Set-2, instance=Part-1-1
 11, 12
*End Assembly
** 
*Amplitude, name=Amp-1 
             0.,              0.,              1.,            0.05    
** MATERIALS
**  
*Material, name=MAT1_GRN1 
*Density
1., 
*Depvar 
     76, 
*User Material, constants=8, type=MECHANICAL 
768.,1., 595., 0.059, 217.72, 121.79, 93.733, 0.3
*User Material, constants=8, type=THERMAL
0.01271, 4, 20.2e6, 0., 58.6e6, 8.464e13, 11.5e6, 8.464e17
***********************************************   
** PREDEFINED FIELDS
** 
** Name: Predefined Field-1   Type: Temperature
*Initial Conditions, type=TEMPERATURE
Set-102, 2.659e11
**
** STEP: Step-1
**  
*Step, name=Step-1, nlgeom=YES, inc=1000000, unsymm=YES, amplitude=RAMP
*Coupled Temperature-displacement, creep=none, deltmx=1e13
0.0001, 1., 1e-25, 0.01
**Controls, parameters=TIME INCREMENTATION
**2,10,1E-10,0.01
** 
** 
** BOUNDARY CONDITIONS
** 
** Name: BC-1 Type: Symmetry/Antisymmetry/Encastre
*Boundary
Set-1, ENCASTRE
** Name: BC-2 Type: Displacement/Rotation
*Boundary
Set-2, 1, 1, 0.1
** Name: Set-1 Type: Temperature
*Boundary, amplitude=Amp-1
Set-1, 11, 11, 2.659e13
**
** 
** OUTPUT REQUESTS 
**  
*Restart, write, frequency=0 
**  
** FIELD OUTPUT: F-Output-1 
**  
*Output, field, frequency=2 
*Node Output 
NT, RF, RFL, U 
**  
** FIELD OUTPUT: F-Output-2 
**  
*Element Output, directions=YES 
E, HFL, LE, S, SDV, TEMP, S
*Output, history, frequency=0 
*End Step 
