*Heading
** Job name: test Model name: Model-1
** Generated by: Abaqus/CAE 2024
*Preprint, echo=NO, model=NO, history=NO, contact=NO
**
** PARTS
**
*Part, name=Part-1
*Node
      1, 0.0375000015,  0.100000001, 0.00200000009
      2, 0.0375000015,           0., 0.00200000009
      3, 0.0375000015,  0.100000001,           0.
      4, 0.0375000015,           0.,           0.
      5, -0.0375000015,  0.100000001, 0.00200000009
      6, -0.0375000015,           0., 0.00200000009
      7, -0.0375000015,  0.100000001,           0.
      8, -0.0375000015,           0.,           0.
*Element, type=C3D8R
1, 5, 6, 8, 7, 1, 2, 4, 3
*Nset, nset=Set-1, generate
 1,  8,  1
*Elset, elset=Set-1
 1,
** Section: Section-1
*Solid Section, elset=Set-1, material=Material-1
,
*End Part
**  
**
** ASSEMBLY
**
*Assembly, name=Assembly
**  
*Instance, name=Part-1-1, part=Part-1
*End Instance
**  
*Nset, nset=Set-1, instance=Part-1-1, generate
 5,  8,  1
*Elset, elset=Set-1, instance=Part-1-1
 1,
*Nset, nset=Set-2, instance=Part-1-1, generate
 1,  4,  1
*Elset, elset=Set-2, instance=Part-1-1
 1,
*End Assembly
** 
** MATERIALS
** 
*Material, name=Material-1
*Elastic
201880., 0.3
** ----------------------------------------------------------------
** 
** STEP: Step-1
** 
*Step, name=Step-1, nlgeom=NO
*Static
1., 1., 1e-05, 1.
** 
** BOUNDARY CONDITIONS
** 
** Name: BC-1 Type: Displacement/Rotation
*Boundary
Set-1, 1, 1
Set-1, 2, 2
Set-1, 3, 3
Set-1, 4, 4
Set-1, 5, 5
Set-1, 6, 6
** Name: BC-2 Type: Displacement/Rotation
*Boundary
Set-2, 1, 1, 0.002
** 
** OUTPUT REQUESTS
** 
*Restart, write, frequency=0
** 
** FIELD OUTPUT: F-Output-1
** 
*Output, field, variable=PRESELECT
** 
** HISTORY OUTPUT: H-Output-1
** 
*Output, history, variable=PRESELECT
*End Step
