*Heading
** Job name: @D_test_elem Model name: Model-1
** Generated by: Abaqus/CAE 2024
*Preprint, echo=NO, model=NO, history=NO, contact=NO
** ----------------------------------------------------------------
** 
** PART INSTANCE: Part-2-1
** 
*Node
      1,           1.,           1.
      2,          0.5,           1.
      3,           0.,           1.
      4,         -0.5,           1.
      5,          -1.,           1.
      6,           1.,          0.5
      7,          0.5,          0.5
      8,           0.,          0.5
      9,         -0.5,          0.5
     10,          -1.,          0.5
     11,           1.,           0.
     12,          0.5,           0.
     13,           0.,           0.
     14,         -0.5,           0.
     15,          -1.,           0.
     16,           1.,         -0.5
     17,          0.5,         -0.5
     18,           0.,         -0.5
     19,         -0.5,         -0.5
     20,          -1.,         -0.5
** ... 5 like lines cut
*Element, type=CPS4R
 1,  1,  2,  7,  6
 2,  2,  3,  8,  7
 3,  3,  4,  9,  8
 4,  4,  5, 10,  9
 5,  6,  7, 12, 11
 6,  7,  8, 13, 12
 7,  8,  9, 14, 13
 8,  9, 10, 15, 14
 9, 11, 12, 17, 16
10, 12, 13, 18, 17
11, 13, 14, 19, 18
12, 14, 15, 20, 19
13, 16, 17, 22, 21
14, 17, 18, 23, 22
15, 18, 19, 24, 23
16, 19, 20, 25, 24
*Nset, nset=Part-2-1_Set-1, generate
  1,  25,   1
*Elset, elset=Part-2-1_Set-1, generate
  1,  16,   1
** Section: Section-1
*Solid Section, elset=Part-2-1_Set-1, material=Material-1
,
*System
*Nset, nset=Set-1, generate
  5,  25,   5
*Elset, elset=Set-1, generate
  4,  16,   4
*Elset, elset=_Surf-1_S4, generate
  1,  13,   4
*Surface, type=ELEMENT, name=Surf-1
_Surf-1_S4, S4
** 
** MATERIALS
** 
*Material, name=Material-1
*Density
1.,
*Elastic
 2.6e+06, 0.3
** ----------------------------------------------------------------
** 
** STEP: Step-1
** 
*Step, name=Step-1, nlgeom=NO
*Static
1., 1., 1e-05, 1.
** 
** BOUNDARY CONDITIONS
** 
** Name: BC-1 Type: Symmetry/Antisymmetry/Encastre
*Boundary
Set-1, ENCASTRE
** 
** LOADS
** 
** Name: Load-1   Type: Pressure
*Dsload
Surf-1, P, -10.
** 
** OUTPUT REQUESTS
** 
*Restart, write, frequency=0
** 
** FIELD OUTPUT: F-Output-1
** 
*Output, field, variable=PRESELECT
** 
** HISTORY OUTPUT: H-Output-1
** 
*Output, history, variable=PRESELECT
*End Step
