*Heading
** Job name: @D_test_elem Model name: Model-1
** Generated by: Abaqus/CAE 2024
*Preprint, echo=NO, model=NO, history=NO, contact=NO
** ----------------------------------------------------------------
** 
** PART INSTANCE: Part-2-1
** 
*Node
      1,           1.,           1.
      2,         0.75,           1.
      3,          0.5,           1.
      4,         0.25,           1.
      5,           0.,           1.
      6,           1.,           0.75
      7,          0.5,           0.75
      8,           0.,           0.75
      9,           1.,           0.5
     10,         0.75,           0.5
     11,          0.5,           0.5
     12,         0.25,           0.5
     13,           0.,           0.5
     14,           1.,           0.25
     15,          0.5,           0.25
     16,           0.,           0.25
     17,           1.,           0.
     18,         0.75,           0.
     19,          0.5,           0.
     20,         0.25,           0.
     21,           0.,           0.
*Element, type=CPE8R
 1,  1,  3,  11,  9,  2,  7,  10,  6
 2,  3,  5,  13, 11,  4,  8,  12,  7
 3,  9, 11,  19, 17,  10, 15,  18,  14
 4,  11, 13,  21, 19,  12,  16,  20,  15
*Nset, nset=Part-2-1_Set-1, generate
  1,  21,   1
*Elset, elset=Part-2-1_Set-1, generate
  1,  4,   1
** Section: Section-1
*Solid Section, elset=Part-2-1_Set-1, material=Material-1
,
*System
*Nset, nset=Set-1
  5,  8,  13,  16,  21
*Elset, elset=Set-1
  2,  4
*Elset, elset=_Surf-1_S4
  1,  3
*Surface, type=ELEMENT, name=Surf-1
_Surf-1_S4, S4
** 
** MATERIALS
** 
*Material, name=Material-1
*Density
1.,
*Elastic
 2.6e+06, 0.3
** ----------------------------------------------------------------
** 
** STEP: Step-1
** 
*Step, name=Step-1, nlgeom=NO
*Static
1., 1., 1e-05, 1.
** 
** BOUNDARY CONDITIONS
** 
** Name: BC-1 Type: Symmetry/Antisymmetry/Encastre
*Boundary
Set-1, ENCASTRE
** 
** LOADS
** 
** Name: Load-1   Type: Pressure
*Dsload
Surf-1, P, -10.
** 
** OUTPUT REQUESTS
** 
*Restart, write, frequency=0
** 
** FIELD OUTPUT: F-Output-1
** 
*Output, field, variable=PRESELECT
** 
** HISTORY OUTPUT: H-Output-1
** 
*Output, history, variable=PRESELECT
*End Step
