*Heading 
 OneFifthMesh-periodic 
** Job name: OneFifthMesh-Periodic Model name: tension-5-periodic 
** Generated by: Abaqus/CAE 2019 
*Preprint, echo=NO, model=NO, history=NO, contact=NO 
** 
** PARTS 
** 
*Part, name=Part-1 
*Node 
      1,          -1.,          -1.,  0.100000001
      2,          -1.,           1.,  0.100000001
      3,          -1.,           1.,           0.
      4,          -1.,          -1.,           0.
      5,           1.,           1.,  0.100000001
      6,           1.,           1.,           0.
      7,           1.,          -1.,           0.
      8,           1.,          -1.,  0.100000001
      9,          -1., -0.800000012,  0.100000001
     10,          -1., -0.600000024,  0.100000001
     11,          -1., -0.400000006,  0.100000001
     12,          -1., -0.200000003,  0.100000001
     13,          -1.,           0.,  0.100000001
     14,          -1.,  0.200000003,  0.100000001
     15,          -1.,  0.400000006,  0.100000001
     16,          -1.,  0.600000024,  0.100000001
     17,          -1.,  0.800000012,  0.100000001
     18,          -1.,  0.800000012,           0.
     19,          -1.,  0.600000024,           0.
     20,          -1.,  0.400000006,           0.
** ... 1460 like lines cut
*Element, type=C3D10
  1,  240,  239,  108,  243,  263,  262,  261,  265,  264,  266
  2,  243,  108,  100,  109,  266,  268,  267,  270,  269,  271
  3,  189,  244,   66,  159,  274,  273,  272,  276,  275,  277
  4,  158,  159,  189,   57,  279,  276,  278,  281,  280,  282
  5,  245,  207,   68,   59,  285,  284,  283,  287,  286,  288
  6,  155,  208,  146,  217,  291,  290,  289,  293,  292,  294
  7,   48,  125,  246,  116,  297,  296,  295,  299,  298,  300
  8,  138,  147,  139,  208,  303,  302,  301,  305,  304,  306
  9,  138,  209,  139,  130,  308,  307,  301,  310,  309,  311
 10,  233,   28,   82,   81,  314,  313,  312,  316,  315,  317
 11,  247,   19,   18,   81,  320,  319,  318,  322,  321,  323
 12,  248,    1,   71,    9,  326,  325,  324,  328,  327,  329
 13,  248,   62,    1,    4,  331,  330,  326,  333,  332,  334
 14,    4,  153,    9,  248,  337,  336,  335,  333,  338,  328
 15,  191,  131,  192,  182,  341,  340,  339,  343,  342,  344
 16,  248,  234,    9,   71,  346,  345,  328,  324,  347,  329
 17,  248,  234,   62,  153,  346,  348,  331,  338,  349,  350
 18,  249,   54,   53,    7,  353,  352,  351,  355,  354,  356
 19,  250,  249,   63,   54,  359,  358,  357,  360,  353,  361
 20,  190,  251,  150,  149,  364,  363,  362,  366,  365,  367
** ... 701 like lines cut
*Nset, nset=Set-1, generate
     1,  1480,      1
*Elset, elset=Set-1, generate
    1,  721,     1
*Nset, nset=Set-2
    1,    2,    3,    4,    9,   10,   11,   12,   13,   14,   15,   16,   17,   18,   19,   20
   21,   22,   23,   24,   25,   26,  319,  327,  334,  335,  649,  793,  908,  972, 1029, 1030
 1031, 1309, 1310, 1335, 1337, 1344, 1345, 1353, 1365, 1368, 1378, 1381, 1382, 1384, 1396, 1397
 1406, 1407, 1408, 1411, 1441, 1442, 1464, 1465, 1468, 1470, 1471, 1472, 1474, 1475, 1480
*Elset, elset=Set-2
 253, 390, 441, 482, 498, 503, 522, 550, 551, 608, 650, 653, 658, 661, 667, 668
 670, 673, 675, 706
*Elset, elset=_Surf-1_S2
  22, 347, 359, 443, 473, 485, 613
*Elset, elset=_Surf-1_S3
  70, 506, 560, 612, 639
*Elset, elset=_Surf-1_S1
 307, 309, 357
*Elset, elset=_Surf-1_S4
 332, 475, 526, 596, 644
*Surface, type=ELEMENT, name=Surf-1
_Surf-1_S2, S2
_Surf-1_S3, S3
_Surf-1_S4, S4
_Surf-1_S1, S1
** 
** 
** Section: Section-1
*Solid Section, elset=Set-1, material=MAT1_GRN1
,
*End Part 
** 
** 
** ASSEMBLY 
** 
*Assembly, name=Assembly 
**   
*Instance, name=Part-1-1, part=Part-1 
*End Instance 
** 
*Nset, nset=Set-102, instance=Part-1-1, generate 
    1,  1480, 1 
*Elset, elset=Set-102, instance=Part-1-1, generate 
    1,  721, 1
*Nset, nset=Hsurface, instance=Part-1-1
    1,    2,    3,    4,    9,   10,   11,   12,   13,   14,   15,   16,   17,   18,   19,   20
   21,   22,   23,   24,   25,   26,  319,  327,  334,  335,  649,  793,  908,  972, 1029, 1030
 1031, 1309, 1310, 1335, 1337, 1344, 1345, 1353, 1365, 1368, 1378, 1381, 1382, 1384, 1396, 1397
 1406, 1407, 1408, 1411, 1441, 1442, 1464, 1465, 1468, 1470, 1471, 1472, 1474, 1475, 1480
** MATERIALS
** 
*Material, name=Material-1
*Density
1.,
*Elastic
 2.65e+06, 0.3
** ----------------------------------------------------------------
** 
** STEP: Step-1
** 
*Step, name=Step-1, nlgeom=NO
*Static
1., 1., 1e-05, 1.
** 
** BOUNDARY CONDITIONS
** 
** Name: BC-1 Type: Symmetry/Antisymmetry/Encastre
*Boundary
Set-1, ENCASTRE
** 
** LOADS
** 
** Name: Load-1   Type: Pressure
*Dsload
Surf-1, P, -0.1
** 
** OUTPUT REQUESTS
** 
*Restart, write, frequency=0
** 
** FIELD OUTPUT: F-Output-1
** 
*Output, field, variable=PRESELECT
** 
** HISTORY OUTPUT: H-Output-1
** 
*Output, history, variable=PRESELECT
*End Step
