 Abaqus/Standard 2024                  DATE 12-Jun-2025 TIME 15:06:25
 SUMMARY OF JOB INFORMATION:
 STEP  INC ATT SEVERE EQUIL TOTAL  TOTAL      STEP       INC OF       DOF    IF
               DISCON ITERS ITERS  TIME/    TIME/LPF    TIME/LPF    MONITOR RIKS
               ITERS               FREQ
   1     1   1     0     2     2  0.000100   0.000100   0.0001000 
   1     2   1     0     1     1  0.000200   0.000200   0.0001000 
   1     3   1     0     1     1  0.000300   0.000300   0.0001000 
   1     4   1     0     1     1  0.000500   0.000500   0.0002000 
   1     5   1     0     1     1  0.000900   0.000900   0.0004000 
   1     6   1     0     1     1  0.00170    0.00170    0.0008000 
   1     7   1     0     1     1  0.00330    0.00330    0.001600  
   1     8   1     0     2     2  0.00650    0.00650    0.003200  
   1     9   1     0     2     2  0.0113     0.0113     0.004800  
   1    10   1     0     3     3  0.0185     0.0185     0.007200  
   1    11   1     0     3     3  0.0285     0.0285     0.01000   
   1    12   1     0     3     3  0.0385     0.0385     0.01000   
   1    13   1     0     2     2  0.0485     0.0485     0.01000   
   1    14   1     0     2     2  0.0585     0.0585     0.01000   
   1    15   1     0     2     2  0.0685     0.0685     0.01000   
   1    16   1     0     2     2  0.0785     0.0785     0.01000   
   1    17   1     0     2     2  0.0885     0.0885     0.01000   
   1    18   1     0     2     2  0.0985     0.0985     0.01000   
   1    19   1     0     2     2  0.108      0.108      0.01000   
   1    20   1     0     1     1  0.118      0.118      0.01000   
   1    21   1     0     1     1  0.128      0.128      0.01000   
   1    22   1     0     1     1  0.138      0.138      0.01000   
   1    23   1     0     1     1  0.148      0.148      0.01000   
   1    24   1     0     1     1  0.159      0.159      0.01000   
   1    25   1     0     1     1  0.169      0.169      0.01000   
   1    26   1     0     1     1  0.179      0.179      0.01000   
   1    27   1     0     1     1  0.189      0.189      0.01000   
   1    28   1     0     1     1  0.199      0.199      0.01000   
   1    29   1     0     1     1  0.209      0.209      0.01000   
   1    30   1     0     1     1  0.219      0.219      0.01000   
   1    31   1     0     1     1  0.229      0.229      0.01000   
   1    32   1     0     1     1  0.239      0.239      0.01000   
   1    33   1     0     1     1  0.249      0.249      0.01000   
   1    34   1     0     1     1  0.259      0.259      0.01000   
   1    35   1     0     1     1  0.269      0.269      0.01000   
   1    36   1     0     1     1  0.279      0.279      0.01000   
   1    37   1     0     1     1  0.289      0.289      0.01000   
   1    38   1     0     1     1  0.299      0.299      0.01000   
   1    39   1     0     1     1  0.309      0.309      0.01000   
   1    40   1     0     2     2  0.319      0.319      0.01000   
   1    41   1     0     2     2  0.329      0.329      0.01000   
   1    42   1     0     2     2  0.339      0.339      0.01000   
   1    43   1     0     2     2  0.349      0.349      0.01000   
   1    44   1     0     2     2  0.359      0.359      0.01000   
   1    45   1     0     2     2  0.369      0.369      0.01000   
   1    46   1     0     2     2  0.379      0.379      0.01000   
   1    47   1     0     2     2  0.389      0.389      0.01000   
   1    48   1     0     2     2  0.399      0.399      0.01000   
   1    49   1     0     2     2  0.409      0.409      0.01000   
   1    50   1     0     2     2  0.419      0.419      0.01000   
   1    51   1     0     2     2  0.429      0.429      0.01000   
   1    52   1     0     2     2  0.439      0.439      0.01000   
   1    53   1     0     2     2  0.449      0.449      0.01000   
   1    54   1     0     2     2  0.459      0.459      0.01000   
   1    55   1     0     2     2  0.469      0.469      0.01000   
   1    56   1     0     2     2  0.479      0.479      0.01000   
   1    57   1     0     2     2  0.489      0.489      0.01000   
   1    58   1     0     2     2  0.499      0.499      0.01000   
   1    59   1     0     2     2  0.509      0.509      0.01000   
   1    60   1     0     2     2  0.519      0.519      0.01000   
   1    61   1     0     2     2  0.529      0.529      0.01000   
   1    62   1     0     2     2  0.539      0.539      0.01000   
   1    63   1     0     2     2  0.549      0.549      0.01000   
   1    64   1     0     2     2  0.559      0.559      0.01000   
   1    65   1     0     2     2  0.569      0.569      0.01000   
   1    66   1     0     2     2  0.579      0.579      0.01000   
   1    67   1     0     2     2  0.589      0.589      0.01000   
   1    68   1     0     2     2  0.599      0.599      0.01000   
   1    69   1     0     2     2  0.609      0.609      0.01000   
   1    70   1     0     2     2  0.619      0.619      0.01000   
   1    71   1     0     2     2  0.629      0.629      0.01000   
   1    72   1     0     2     2  0.639      0.639      0.01000   
   1    73   1     0     2     2  0.649      0.649      0.01000   
   1    74   1     0     2     2  0.659      0.659      0.01000   
   1    75   1     0     2     2  0.669      0.669      0.01000   
   1    76   1     0     2     2  0.679      0.679      0.01000   
   1    77   1     0     2     2  0.689      0.689      0.01000   
   1    78   1     0     2     2  0.699      0.699      0.01000   
   1    79   1     0     2     2  0.709      0.709      0.01000   
   1    80   1     0     2     2  0.719      0.719      0.01000   
   1    81   1     0     2     2  0.729      0.729      0.01000   
   1    82   1     0     2     2  0.739      0.739      0.01000   
   1    83   1     0     2     2  0.749      0.749      0.01000   
   1    84   1     0     2     2  0.759      0.759      0.01000   
   1    85   1     0     2     2  0.769      0.769      0.01000   
   1    86   1     0     2     2  0.779      0.779      0.01000   
   1    87   1     0     2     2  0.789      0.789      0.01000   
   1    88   1     0     2     2  0.799      0.799      0.01000   
   1    89   1     0     2     2  0.809      0.809      0.01000   
   1    90   1     0     2     2  0.819      0.819      0.01000   
   1    91   1     0     2     2  0.829      0.829      0.01000   
   1    92   1     0     2     2  0.839      0.839      0.01000   
   1    93   1     0     2     2  0.849      0.849      0.01000   
   1    94   1     0     2     2  0.859      0.859      0.01000   
   1    95   1     0     2     2  0.869      0.869      0.01000   
   1    96   1     0     2     2  0.879      0.879      0.01000   
   1    97   1     0     2     2  0.889      0.889      0.01000   
   1    98   1     0     2     2  0.899      0.899      0.01000   
   1    99   1     0     2     2  0.909      0.909      0.01000   
   1   100   1     0     2     2  0.919      0.919      0.01000   
   1   101   1     0     2     2  0.929      0.929      0.01000   
   1   102   1     0     2     2  0.939      0.939      0.01000   
   1   103   1     0     2     2  0.949      0.949      0.01000   
   1   104   1     0     2     2  0.959      0.959      0.01000   
   1   105   1     0     2     2  0.969      0.969      0.01000   
   1   106   1     0     2     2  0.979      0.979      0.01000   
   1   107   1     0     2     2  0.989      0.989      0.01000   
   1   108   1     0     2     2  0.999      0.999      0.01000   
   1   109   1     0     1     1  1.00       1.00       0.001500  
                          
 THE ANALYSIS HAS COMPLETED SUCCESSFULLY
