1

   Abaqus 2024                                  Date 12-Jun-2025   Time 15:06:25
   For use by UNIVERSITY OF WYOMING under license from Dassault Systemes or its subsidiary.

 OneFifthMesh-periodic                                                           
                                                                                 
 STEP    1     INCREMENT     1     STEP TIME    0.00    


                        S T E P       1     C O U P L E D - T E M P E R A T U R E - D I S P L A C E M E N T   A N A L Y S I S


                                                                                          

     AUTOMATIC TIME CONTROL WITH -
          A SUGGESTED INITIAL TIME INCREMENT OF                1.000E-04
          AND A TOTAL TIME PERIOD OF                            1.00    
          THE MINIMUM TIME INCREMENT ALLOWED IS                1.000E-25
          THE MAXIMUM TIME INCREMENT ALLOWED IS                1.000E-02

          CREEP AND SWELLING EFFECTS ARE OMITTED IN THIS STEP

     THE SIZE OF THE TIME INCREMENT IS CONTROLLED BY -
          THE TEMPERATURE CHANGE PER INCREMENT NOT EXCEEDING           1.000E+13
          THE RATE DEPENDENCY WILL BE CONSIDERED IN THIS STEP

          CREEP AND SWELLING EFFECTS WILL BE IGNORED.

 CONVERGENCE TOLERANCE PARAMETERS FOR FORCE    
     CRITERION FOR RESIDUAL FORCE     FOR A NONLINEAR PROBLEM          5.000E-03
     CRITERION FOR DISP.    CORRECTION IN A NONLINEAR PROBLEM          1.000E-02
     INITIAL VALUE OF TIME AVERAGE FORCE                               1.000E-02
     AVERAGE FORCE     IS TIME AVERAGE FORCE    
     ALTERNATE CRIT. FOR RESIDUAL FORCE     FOR A NONLINEAR PROBLEM    2.000E-02
     CRITERION FOR ZERO FORCE     RELATIVE TO TIME AVRG. FORCE         1.000E-05
     CRITERION FOR RESIDUAL FORCE     WHEN THERE IS ZERO FLUX          1.000E-05
     CRITERION FOR DISP.    CORRECTION WHEN THERE IS ZERO FLUX         1.000E-03
     CRITERION FOR RESIDUAL FORCE     FOR A LINEAR INCREMENT           1.000E-08
     FIELD CONVERSION RATIO                                             1.00    
     CRITERION FOR ZERO FORCE     REL. TO TIME AVRG. MAX. FORCE        1.000E-05
     CRITERION FOR ZERO DISP.    RELATIVE TO CHARACTERISTIC LENGTH     1.000E-08

 CONVERGENCE TOLERANCE PARAMETERS FOR HEAT FLUX
     CRITERION FOR RESIDUAL HEAT FLUX FOR A NONLINEAR PROBLEM          5.000E-03
     CRITERION FOR TEMP.    CORRECTION IN A NONLINEAR PROBLEM          1.000E-02
     INITIAL VALUE OF TIME AVERAGE HEAT FLUX                           1.000E-02
     AVERAGE HEAT FLUX IS TIME AVERAGE HEAT FLUX
     ALTERNATE CRIT. FOR RESIDUAL HEAT FLUX FOR A NONLINEAR PROBLEM    2.000E-02
     CRITERION FOR ZERO HEAT FLUX RELATIVE TO TIME AVRG. HEAT FLUX     1.000E-05
     CRITERION FOR RESIDUAL HEAT FLUX WHEN THERE IS ZERO FLUX          1.000E-05
     CRITERION FOR TEMP.    CORRECTION WHEN THERE IS ZERO FLUX         1.000E-03
     CRITERION FOR RESIDUAL HEAT FLUX FOR A LINEAR INCREMENT           1.000E-08
     FIELD CONVERSION RATIO                                             1.00    
     CRITERION FOR ZERO HEAT FLUX REL. TO TIME AVRG. MAX. HEAT FLUX    1.000E-05

     VOLUMETRIC STRAIN COMPATIBILITY TOLERANCE FOR HYBRID SOLIDS       1.000E-05
     AXIAL STRAIN COMPATIBILITY TOLERANCE FOR HYBRID BEAMS             1.000E-05
     TRANS. SHEAR STRAIN COMPATIBILITY TOLERANCE FOR HYBRID BEAMS      1.000E-05
     SOFT CONTACT CONSTRAINT COMPATIBILITY TOLERANCE FOR P>P0          5.000E-03
     SOFT CONTACT CONSTRAINT COMPATIBILITY TOLERANCE FOR P=0.0         0.100    
     CONTACT FORCE ERROR TOLERANCE FOR CONVERT SDI=YES                 1.00    
     DISPLACEMENT COMPATIBILITY TOLERANCE FOR DCOUP ELEMENTS           1.000E-05
     ROTATION COMPATIBILITY TOLERANCE FOR DCOUP ELEMENTS               1.000E-05

 EQUILIBRIUM WILL BE CHECKED FOR SEVERE DISCONTINUITY ITERATIONS

 TIME INCREMENTATION CONTROL PARAMETERS:
     FIRST EQUILIBRIUM ITERATION FOR CONSECUTIVE DIVERGENCE CHECK              4
     EQUILIBRIUM ITERATION AT WHICH LOG. CONVERGENCE RATE CHECK BEGINS         8
     EQUILIBRIUM ITERATION AFTER WHICH ALTERNATE RESIDUAL IS USED              9
     MAXIMUM EQUILIBRIUM ITERATIONS ALLOWED                                   16
     EQUILIBRIUM ITERATION COUNT FOR CUT-BACK IN NEXT INCREMENT               10
     MAXIMUM EQUILIB. ITERS IN TWO INCREMENTS FOR TIME INCREMENT INCREASE      4
     MAXIMUM ITERATIONS FOR SEVERE DISCONTINUITIES                            50
     MAXIMUM ATTEMPTS ALLOWED IN AN INCREMENT                                  5
     MAXIMUM DISCON. ITERS IN TWO INCREMENTS FOR TIME INCREMENT INCREASE      50
     MAXIMUM CONTACT AUGMENTATIONS FOR *SURFACE BEHAVIOR,AUGMENTED LAGRANGE   50
     CONSECUTIVE INCS MEETING TIME INTEG. TOL. FOR TIME INC. INCREASE          3
     CUT-BACK FACTOR AFTER DIVERGENCE                                 0.2500    
     CUT-BACK FACTOR FOR TOO SLOW CONVERGENCE                         0.5000    
     CUT-BACK FACTOR AFTER TOO MANY EQUILIBRIUM ITERATIONS            0.7500    
     CUT-BACK FACTOR AFTER TOO MANY SEVERE DISCONTINUITY ITERATIONS   0.2500    
     CUT-BACK FACTOR AFTER PROBLEMS IN ELEMENT ASSEMBLY               0.2500    
     INCREASE FACTOR AFTER TWO INCREMENTS THAT CONVERGE QUICKLY        1.500    
     MAX. TIME INCREMENT INCREASE FACTOR ALLOWED                       1.500    
     MAX. TIME INCREMENT INCREASE FACTOR ALLOWED (DYNAMICS)            1.250    
     MAX. TIME INCREMENT INCREASE FACTOR ALLOWED (DIFFUSION)           2.000    
     MINIMUM TIME INCREMENT RATIO FOR EXTRAPOLATION TO OCCUR          0.1000    
     CUT-BACK FACTOR WHEN TIME INTEGRATION ACCURACY TOL. EXCEEDED     0.8500    
     MAX. RATIO OF TIME INTEG. MEASURE TO TOL. FOR TIME INC. INCREASE 0.7500    
     INCREASE FACTOR FOR TIME INCREMENT WHEN POSSIBLE                 0.8000    
     MIN. TIME INC. INCREASE FACTOR IN LINEAR TRANSIENT PROBLEMS      0.9500    
     MAX. RATIO OF TIME INCREMENT TO STABILITY LIMIT                   1.000    
     FRACTION OF STABILITY LIMIT FOR NEW TIME INCREMENT               0.9500    
     TIME INCREMENT INCREASE FACTOR BEFORE A TIME POINT                1.000    
     GLOBAL STABILIZATION CONTROL IS NOT USED

          PRINT OF INCREMENT NUMBER, TIME, ETC., EVERY    1  INCREMENTS

     THE MAXIMUM NUMBER OF INCREMENTS IN THIS STEP IS                 1000000

          LARGE DISPLACEMENT THEORY WILL BE USED

          UNSYMMETRIC MATRIX STORAGE AND SOLUTION WILL BE USED

     LINEAR EXTRAPOLATION WILL BE USED

     CHARACTERISTIC ELEMENT LENGTH      1.04    

     DETAILS REGARDING ACTUAL SOLUTION WAVEFRONT REQUESTED

     DETAILED OUTPUT OF DIAGNOSTICS TO DATABASE REQUESTED

     PRINT OF INCREMENT NUMBER, TIME, ETC., TO THE MESSAGE FILE EVERY     1  INCREMENTS

     COLLECTING MODEL CONSTRAINT INFORMATION FOR OVERCONSTRAINT CHECKS

     COLLECTING STEP CONSTRAINT INFORMATION FOR OVERCONSTRAINT CHECKS


  INCREMENT     1 STARTS. ATTEMPT NUMBER  1, TIME INCREMENT  1.000E-04
 
	UNSYMMETRIC NEW DIRECT SPARSE SOLVER RUNNING ON
 	1 HOST x 1 MPI RANK PER HOST x 1 THREAD PER RANK
        NUMBER OF EQUATIONS:  114
        NUMBER OF RHS:        1
        NUMBER OF FLOPS:      5.005e+05
        SOLVER ELAPSED TIME:  6ms

               CONVERGENCE CHECKS FOR EQUILIBRIUM ITERATION     1


 AVERAGE FORCE                      2.937E-06   TIME AVG. FORCE       2.937E-06
 LARGEST SCALED RESIDUAL FORCE      3.084E-09   AT NODE         22   DOF  3
   INSTANCE: PART-1-1                                                                        
  CORRESPONDING RESIDUAL FORCE      3.084E-09
 LARGEST INCREMENT OF DISP.         1.000E-05   AT NODE          1   DOF  1
   INSTANCE: PART-1-1                                                                        
 LARGEST CORRECTION TO DISP.        1.000E-05   AT NODE          1   DOF  1
   INSTANCE: PART-1-1                                                                        
          DISP.    CORRECTION TOO LARGE COMPARED TO DISP.    INCREMENT

 AVERAGE HEAT FLUX                  6.506E+10   TIME AVG. HEAT FLUX   6.506E+10
 LARGEST RESIDUAL HEAT FLUX         1.113E+07   AT NODE          9   DOF 11
   INSTANCE: PART-1-1                                                                        
 LARGEST INCREMENT OF TEMP.         2.632E+09   AT NODE          5   DOF 11
   INSTANCE: PART-1-1                                                                        
 LARGEST CORRECTION TO TEMP.        2.632E+09   AT NODE          5   DOF 11
   INSTANCE: PART-1-1                                                                        
          TEMP.    CORRECTION TOO LARGE COMPARED TO TEMP.    INCREMENT
 
	UNSYMMETRIC NEW DIRECT SPARSE SOLVER RUNNING ON
 	1 HOST x 1 MPI RANK PER HOST x 1 THREAD PER RANK
        NUMBER OF EQUATIONS:  114
        NUMBER OF RHS:        1
        NUMBER OF FLOPS:      5.005e+05
        SOLVER ELAPSED TIME:  1ms

               CONVERGENCE CHECKS FOR EQUILIBRIUM ITERATION     2


 AVERAGE FORCE                      2.937E-06   TIME AVG. FORCE       2.937E-06
 LARGEST SCALED RESIDUAL FORCE      1.413E-14   AT NODE         26   DOF  3
   INSTANCE: PART-1-1                                                                        
  CORRESPONDING RESIDUAL FORCE      1.413E-14
 LARGEST INCREMENT OF DISP.         1.000E-05   AT NODE          1   DOF  1
   INSTANCE: PART-1-1                                                                        
 LARGEST CORRECTION TO DISP.        8.779E-11   AT NODE          3   DOF  2
   INSTANCE: PART-1-1                                                                        
          THE FORCE     EQUILIBRIUM EQUATIONS HAVE CONVERGED

 AVERAGE HEAT FLUX                  6.506E+10   TIME AVG. HEAT FLUX   6.506E+10
 LARGEST RESIDUAL HEAT FLUX          65.6       AT NODE          9   DOF 11
   INSTANCE: PART-1-1                                                                        
 LARGEST INCREMENT OF TEMP.         2.632E+09   AT NODE          5   DOF 11
   INSTANCE: PART-1-1                                                                        
 LARGEST CORRECTION TO TEMP.        1.409E+04   AT NODE          9   DOF 11
   INSTANCE: PART-1-1                                                                        
          THE HEAT FLUX EQUILIBRIUM EQUATIONS HAVE CONVERGED

 MAXIMUM NON-PRESCRIBED INCREMENT IN TEMPERATURE IS   2.756E+06

 ITERATION SUMMARY FOR THE INCREMENT:   2 TOTAL ITERATIONS, OF WHICH
   0 ARE SEVERE DISCONTINUITY ITERATIONS AND  2 ARE EQUILIBRIUM ITERATIONS.

 TIME INCREMENT COMPLETED  1.000E-04,  FRACTION OF STEP COMPLETED  1.000E-04
 STEP TIME COMPLETED       1.000E-04,  TOTAL TIME COMPLETED        1.000E-04


  INCREMENT     2 STARTS. ATTEMPT NUMBER  1, TIME INCREMENT  1.000E-04
 
	UNSYMMETRIC NEW DIRECT SPARSE SOLVER RUNNING ON
 	1 HOST x 1 MPI RANK PER HOST x 1 THREAD PER RANK
        NUMBER OF EQUATIONS:  114
        NUMBER OF RHS:        1
        NUMBER OF FLOPS:      5.005e+05
        SOLVER ELAPSED TIME:  1ms

               CONVERGENCE CHECKS FOR EQUILIBRIUM ITERATION     1


 AVERAGE FORCE                      5.908E-06   TIME AVG. FORCE       4.423E-06
 LARGEST SCALED RESIDUAL FORCE     -1.093E-14   AT NODE         26   DOF  1
   INSTANCE: PART-1-1                                                                        
  CORRESPONDING RESIDUAL FORCE     -1.093E-14
 LARGEST INCREMENT OF DISP.         1.000E-05   AT NODE          1   DOF  1
   INSTANCE: PART-1-1                                                                        
 LARGEST CORRECTION TO DISP.        4.886E-11   AT NODE          1   DOF  3
   INSTANCE: PART-1-1                                                                        
          THE FORCE     EQUILIBRIUM RESPONSE WAS LINEAR IN THIS INCREMENT

 AVERAGE HEAT FLUX                  7.370E+10   TIME AVG. HEAT FLUX   6.938E+10
 LARGEST RESIDUAL HEAT FLUX        -1.447E+05   AT NODE          9   DOF 11
   INSTANCE: PART-1-1                                                                        
 LARGEST INCREMENT OF TEMP.         2.632E+09   AT NODE          5   DOF 11
   INSTANCE: PART-1-1                                                                        
 LARGEST CORRECTION TO TEMP.        2.776E+06   AT NODE          9   DOF 11
   INSTANCE: PART-1-1                                                                        
          THE HEAT FLUX EQUILIBRIUM EQUATIONS HAVE CONVERGED

 MAXIMUM NON-PRESCRIBED INCREMENT IN TEMPERATURE IS   5.533E+06

 ITERATION SUMMARY FOR THE INCREMENT:   1 TOTAL ITERATIONS, OF WHICH
   0 ARE SEVERE DISCONTINUITY ITERATIONS AND  1 ARE EQUILIBRIUM ITERATIONS.

 TIME INCREMENT COMPLETED  1.000E-04,  FRACTION OF STEP COMPLETED  2.000E-04
 STEP TIME COMPLETED       2.000E-04,  TOTAL TIME COMPLETED        2.000E-04


  INCREMENT     3 STARTS. ATTEMPT NUMBER  1, TIME INCREMENT  1.000E-04
 
	UNSYMMETRIC NEW DIRECT SPARSE SOLVER RUNNING ON
 	1 HOST x 1 MPI RANK PER HOST x 1 THREAD PER RANK
        NUMBER OF EQUATIONS:  114
        NUMBER OF RHS:        1
        NUMBER OF FLOPS:      5.005e+05
        SOLVER ELAPSED TIME:  1ms

               CONVERGENCE CHECKS FOR EQUILIBRIUM ITERATION     1


 AVERAGE FORCE                      8.861E-06   TIME AVG. FORCE       5.902E-06
 LARGEST SCALED RESIDUAL FORCE     -1.437E-14   AT NODE         26   DOF  1
   INSTANCE: PART-1-1                                                                        
  CORRESPONDING RESIDUAL FORCE     -1.437E-14
 LARGEST INCREMENT OF DISP.         1.000E-05   AT NODE          1   DOF  1
   INSTANCE: PART-1-1                                                                        
 LARGEST CORRECTION TO DISP.        9.256E-11   AT NODE          3   DOF  2
   INSTANCE: PART-1-1                                                                        
          THE FORCE     EQUILIBRIUM RESPONSE WAS LINEAR IN THIS INCREMENT

 AVERAGE HEAT FLUX                  7.137E+10   TIME AVG. HEAT FLUX   7.004E+10
 LARGEST RESIDUAL HEAT FLUX        -4.936E+04   AT NODE          9   DOF 11
   INSTANCE: PART-1-1                                                                        
 LARGEST INCREMENT OF TEMP.         2.632E+09   AT NODE          5   DOF 11
   INSTANCE: PART-1-1                                                                        
 LARGEST CORRECTION TO TEMP.        2.796E+06   AT NODE          9   DOF 11
   INSTANCE: PART-1-1                                                                        
          THE HEAT FLUX EQUILIBRIUM EQUATIONS HAVE CONVERGED

 MAXIMUM NON-PRESCRIBED INCREMENT IN TEMPERATURE IS   8.329E+06
          TIME INCREMENT MAY NOW INCREASE TO    2.000E-04

 ITERATION SUMMARY FOR THE INCREMENT:   1 TOTAL ITERATIONS, OF WHICH
   0 ARE SEVERE DISCONTINUITY ITERATIONS AND  1 ARE EQUILIBRIUM ITERATIONS.

 TIME INCREMENT COMPLETED  1.000E-04,  FRACTION OF STEP COMPLETED  3.000E-04
 STEP TIME COMPLETED       3.000E-04,  TOTAL TIME COMPLETED        3.000E-04


  INCREMENT     4 STARTS. ATTEMPT NUMBER  1, TIME INCREMENT  2.000E-04
 
	UNSYMMETRIC NEW DIRECT SPARSE SOLVER RUNNING ON
 	1 HOST x 1 MPI RANK PER HOST x 1 THREAD PER RANK
        NUMBER OF EQUATIONS:  114
        NUMBER OF RHS:        1
        NUMBER OF FLOPS:      5.005e+05
        SOLVER ELAPSED TIME:  1ms

               CONVERGENCE CHECKS FOR EQUILIBRIUM ITERATION     1


 AVERAGE FORCE                      1.477E-05   TIME AVG. FORCE       8.119E-06
 LARGEST SCALED RESIDUAL FORCE     -8.591E-14   AT NODE         26   DOF  1
   INSTANCE: PART-1-1                                                                        
  CORRESPONDING RESIDUAL FORCE     -8.591E-14
 LARGEST INCREMENT OF DISP.         2.000E-05   AT NODE          1   DOF  1
   INSTANCE: PART-1-1                                                                        
 LARGEST CORRECTION TO DISP.        2.520E-10   AT NODE         15   DOF  2
   INSTANCE: PART-1-1                                                                        
          THE FORCE     EQUILIBRIUM EQUATIONS HAVE CONVERGED

 AVERAGE HEAT FLUX                  6.286E+10   TIME AVG. HEAT FLUX   6.825E+10
 LARGEST RESIDUAL HEAT FLUX         6.374E+04   AT NODE          2   DOF 11
   INSTANCE: PART-1-1                                                                        
 LARGEST INCREMENT OF TEMP.         5.265E+09   AT NODE          5   DOF 11
   INSTANCE: PART-1-1                                                                        
 LARGEST CORRECTION TO TEMP.        1.129E+07   AT NODE          9   DOF 11
   INSTANCE: PART-1-1                                                                        
          THE HEAT FLUX EQUILIBRIUM EQUATIONS HAVE CONVERGED

 MAXIMUM NON-PRESCRIBED INCREMENT IN TEMPERATURE IS   2.795E+07
          TIME INCREMENT MAY NOW INCREASE TO    4.000E-04

 ITERATION SUMMARY FOR THE INCREMENT:   1 TOTAL ITERATIONS, OF WHICH
   0 ARE SEVERE DISCONTINUITY ITERATIONS AND  1 ARE EQUILIBRIUM ITERATIONS.

 TIME INCREMENT COMPLETED  2.000E-04,  FRACTION OF STEP COMPLETED  5.000E-04
 STEP TIME COMPLETED       5.000E-04,  TOTAL TIME COMPLETED        5.000E-04


  INCREMENT     5 STARTS. ATTEMPT NUMBER  1, TIME INCREMENT  4.000E-04
 
	UNSYMMETRIC NEW DIRECT SPARSE SOLVER RUNNING ON
 	1 HOST x 1 MPI RANK PER HOST x 1 THREAD PER RANK
        NUMBER OF EQUATIONS:  114
        NUMBER OF RHS:        1
        NUMBER OF FLOPS:      5.005e+05
        SOLVER ELAPSED TIME:  1ms

               CONVERGENCE CHECKS FOR EQUILIBRIUM ITERATION     1


 AVERAGE FORCE                      2.644E-05   TIME AVG. FORCE       1.178E-05
 LARGEST SCALED RESIDUAL FORCE     -6.863E-13   AT NODE         26   DOF  1
   INSTANCE: PART-1-1                                                                        
  CORRESPONDING RESIDUAL FORCE     -6.863E-13
 LARGEST INCREMENT OF DISP.         4.000E-05   AT NODE          1   DOF  1
   INSTANCE: PART-1-1                                                                        
 LARGEST CORRECTION TO DISP.        1.008E-09   AT NODE         15   DOF  2
   INSTANCE: PART-1-1                                                                        
          THE FORCE     EQUILIBRIUM EQUATIONS HAVE CONVERGED

 AVERAGE HEAT FLUX                  6.084E+10   TIME AVG. HEAT FLUX   6.677E+10
 LARGEST RESIDUAL HEAT FLUX         1.344E+06   AT NODE          9   DOF 11
   INSTANCE: PART-1-1                                                                        
 LARGEST INCREMENT OF TEMP.         1.053E+10   AT NODE          5   DOF 11
   INSTANCE: PART-1-1                                                                        
 LARGEST CORRECTION TO TEMP.        4.592E+07   AT NODE          9   DOF 11
   INSTANCE: PART-1-1                                                                        
          THE HEAT FLUX EQUILIBRIUM EQUATIONS HAVE CONVERGED

 MAXIMUM NON-PRESCRIBED INCREMENT IN TEMPERATURE IS   1.018E+08
          TIME INCREMENT MAY NOW INCREASE TO    8.000E-04

 ITERATION SUMMARY FOR THE INCREMENT:   1 TOTAL ITERATIONS, OF WHICH
   0 ARE SEVERE DISCONTINUITY ITERATIONS AND  1 ARE EQUILIBRIUM ITERATIONS.

 TIME INCREMENT COMPLETED  4.000E-04,  FRACTION OF STEP COMPLETED  9.000E-04
 STEP TIME COMPLETED       9.000E-04,  TOTAL TIME COMPLETED        9.000E-04


  INCREMENT     6 STARTS. ATTEMPT NUMBER  1, TIME INCREMENT  8.000E-04
 
	UNSYMMETRIC NEW DIRECT SPARSE SOLVER RUNNING ON
 	1 HOST x 1 MPI RANK PER HOST x 1 THREAD PER RANK
        NUMBER OF EQUATIONS:  114
        NUMBER OF RHS:        1
        NUMBER OF FLOPS:      5.005e+05
        SOLVER ELAPSED TIME:  1ms

               CONVERGENCE CHECKS FOR EQUILIBRIUM ITERATION     1


 AVERAGE FORCE                      4.993E-05   TIME AVG. FORCE       1.814E-05
 LARGEST SCALED RESIDUAL FORCE     -5.474E-12   AT NODE         26   DOF  1
   INSTANCE: PART-1-1                                                                        
  CORRESPONDING RESIDUAL FORCE     -5.474E-12
 LARGEST INCREMENT OF DISP.         8.000E-05   AT NODE          1   DOF  1
   INSTANCE: PART-1-1                                                                        
 LARGEST CORRECTION TO DISP.        4.030E-09   AT NODE         15   DOF  2
   INSTANCE: PART-1-1                                                                        
          THE FORCE     EQUILIBRIUM EQUATIONS HAVE CONVERGED

 AVERAGE HEAT FLUX                  5.725E+10   TIME AVG. HEAT FLUX   6.518E+10
 LARGEST RESIDUAL HEAT FLUX         1.211E+07   AT NODE          9   DOF 11
   INSTANCE: PART-1-1                                                                        
 LARGEST INCREMENT OF TEMP.         2.106E+10   AT NODE          5   DOF 11
   INSTANCE: PART-1-1                                                                        
 LARGEST CORRECTION TO TEMP.        1.893E+08   AT NODE          9   DOF 11
   INSTANCE: PART-1-1                                                                        
          THE HEAT FLUX EQUILIBRIUM EQUATIONS HAVE CONVERGED

 MAXIMUM NON-PRESCRIBED INCREMENT IN TEMPERATURE IS   3.929E+08
          TIME INCREMENT MAY NOW INCREASE TO    1.600E-03

 ITERATION SUMMARY FOR THE INCREMENT:   1 TOTAL ITERATIONS, OF WHICH
   0 ARE SEVERE DISCONTINUITY ITERATIONS AND  1 ARE EQUILIBRIUM ITERATIONS.

 TIME INCREMENT COMPLETED  8.000E-04,  FRACTION OF STEP COMPLETED  1.700E-03
 STEP TIME COMPLETED       1.700E-03,  TOTAL TIME COMPLETED        1.700E-03


  INCREMENT     7 STARTS. ATTEMPT NUMBER  1, TIME INCREMENT  1.600E-03
 
	UNSYMMETRIC NEW DIRECT SPARSE SOLVER RUNNING ON
 	1 HOST x 1 MPI RANK PER HOST x 1 THREAD PER RANK
        NUMBER OF EQUATIONS:  114
        NUMBER OF RHS:        1
        NUMBER OF FLOPS:      5.005e+05
        SOLVER ELAPSED TIME:  1ms

               CONVERGENCE CHECKS FOR EQUILIBRIUM ITERATION     1


 AVERAGE FORCE                      9.692E-05   TIME AVG. FORCE       2.940E-05
 LARGEST SCALED RESIDUAL FORCE     -4.354E-11   AT NODE         26   DOF  1
   INSTANCE: PART-1-1                                                                        
  CORRESPONDING RESIDUAL FORCE     -4.354E-11
 LARGEST INCREMENT OF DISP.         1.600E-04   AT NODE          1   DOF  1
   INSTANCE: PART-1-1                                                                        
 LARGEST CORRECTION TO DISP.        1.611E-08   AT NODE         15   DOF  2
   INSTANCE: PART-1-1                                                                        
          THE FORCE     EQUILIBRIUM EQUATIONS HAVE CONVERGED

 AVERAGE HEAT FLUX                  5.156E+10   TIME AVG. HEAT FLUX   6.323E+10
 LARGEST RESIDUAL HEAT FLUX         9.742E+07   AT NODE          9   DOF 11
   INSTANCE: PART-1-1                                                                        
 LARGEST INCREMENT OF TEMP.         4.212E+10   AT NODE          5   DOF 11
   INSTANCE: PART-1-1                                                                        
 LARGEST CORRECTION TO TEMP.        7.942E+08   AT NODE          9   DOF 11
   INSTANCE: PART-1-1                                                                        
 ESTIMATE OF TEMP.    CORRECTION    2.180E+06
 HEAT FLUX EQUILIB. ACCEPTED BASED ON SMALL RESIDUAL AND ESTIMATED CORRECTION

 MAXIMUM NON-PRESCRIBED INCREMENT IN TEMPERATURE IS   1.580E+09
          TIME INCREMENT MAY NOW INCREASE TO    3.200E-03

 ITERATION SUMMARY FOR THE INCREMENT:   1 TOTAL ITERATIONS, OF WHICH
   0 ARE SEVERE DISCONTINUITY ITERATIONS AND  1 ARE EQUILIBRIUM ITERATIONS.

 TIME INCREMENT COMPLETED  1.600E-03,  FRACTION OF STEP COMPLETED  3.300E-03
 STEP TIME COMPLETED       3.300E-03,  TOTAL TIME COMPLETED        3.300E-03


  INCREMENT     8 STARTS. ATTEMPT NUMBER  1, TIME INCREMENT  3.200E-03
 
	UNSYMMETRIC NEW DIRECT SPARSE SOLVER RUNNING ON
 	1 HOST x 1 MPI RANK PER HOST x 1 THREAD PER RANK
        NUMBER OF EQUATIONS:  114
        NUMBER OF RHS:        1
        NUMBER OF FLOPS:      5.005e+05
        SOLVER ELAPSED TIME:  1ms

               CONVERGENCE CHECKS FOR EQUILIBRIUM ITERATION     1


 AVERAGE FORCE                      1.909E-04   TIME AVG. FORCE       4.958E-05
 LARGEST SCALED RESIDUAL FORCE     -3.443E-10   AT NODE         26   DOF  1
   INSTANCE: PART-1-1                                                                        
  CORRESPONDING RESIDUAL FORCE     -3.443E-10
 LARGEST INCREMENT OF DISP.         3.200E-04   AT NODE          1   DOF  1
   INSTANCE: PART-1-1                                                                        
 LARGEST CORRECTION TO DISP.        6.439E-08   AT NODE         15   DOF  2
   INSTANCE: PART-1-1                                                                        
          THE FORCE     EQUILIBRIUM EQUATIONS HAVE CONVERGED

 AVERAGE HEAT FLUX                  4.404E+10   TIME AVG. HEAT FLUX   6.083E+10
 LARGEST RESIDUAL HEAT FLUX         7.267E+08   AT NODE          9   DOF 11
   INSTANCE: PART-1-1                                                                        
 LARGEST INCREMENT OF TEMP.         8.424E+10   AT NODE          5   DOF 11
   INSTANCE: PART-1-1                                                                        
 LARGEST CORRECTION TO TEMP.        3.365E+09   AT NODE          9   DOF 11
   INSTANCE: PART-1-1                                                                        
          HEAT FLUX EQUILIBRIUM NOT ACHIEVED WITHIN TOLERANCE.
 
	UNSYMMETRIC NEW DIRECT SPARSE SOLVER RUNNING ON
 	1 HOST x 1 MPI RANK PER HOST x 1 THREAD PER RANK
        NUMBER OF EQUATIONS:  114
        NUMBER OF RHS:        1
        NUMBER OF FLOPS:      5.005e+05
        SOLVER ELAPSED TIME:  1ms

               CONVERGENCE CHECKS FOR EQUILIBRIUM ITERATION     2


 AVERAGE FORCE                      1.909E-04   TIME AVG. FORCE       4.958E-05
 LARGEST SCALED RESIDUAL FORCE     -2.705E-12   AT NODE         22   DOF  1
   INSTANCE: PART-1-1                                                                        
  CORRESPONDING RESIDUAL FORCE     -2.705E-12
 LARGEST INCREMENT OF DISP.         3.200E-04   AT NODE          1   DOF  1
   INSTANCE: PART-1-1                                                                        
 LARGEST CORRECTION TO DISP.       -2.451E-10   AT NODE         23   DOF  3
   INSTANCE: PART-1-1                                                                        
          THE FORCE     EQUILIBRIUM EQUATIONS HAVE CONVERGED

 AVERAGE HEAT FLUX                  4.404E+10   TIME AVG. HEAT FLUX   6.083E+10
 LARGEST RESIDUAL HEAT FLUX         1.136E+07   AT NODE          9   DOF 11
   INSTANCE: PART-1-1                                                                        
 LARGEST INCREMENT OF TEMP.         8.424E+10   AT NODE          5   DOF 11
   INSTANCE: PART-1-1                                                                        
 LARGEST CORRECTION TO TEMP.        3.600E+07   AT NODE          9   DOF 11
   INSTANCE: PART-1-1                                                                        
          THE HEAT FLUX EQUILIBRIUM EQUATIONS HAVE CONVERGED

 MAXIMUM NON-PRESCRIBED INCREMENT IN TEMPERATURE IS   6.561E+09
          TIME INCREMENT MAY NOW INCREASE TO    4.800E-03

 ITERATION SUMMARY FOR THE INCREMENT:   2 TOTAL ITERATIONS, OF WHICH
   0 ARE SEVERE DISCONTINUITY ITERATIONS AND  2 ARE EQUILIBRIUM ITERATIONS.

 TIME INCREMENT COMPLETED  3.200E-03,  FRACTION OF STEP COMPLETED  6.500E-03
 STEP TIME COMPLETED       6.500E-03,  TOTAL TIME COMPLETED        6.500E-03


  INCREMENT     9 STARTS. ATTEMPT NUMBER  1, TIME INCREMENT  4.800E-03
 
	UNSYMMETRIC NEW DIRECT SPARSE SOLVER RUNNING ON
 	1 HOST x 1 MPI RANK PER HOST x 1 THREAD PER RANK
        NUMBER OF EQUATIONS:  114
        NUMBER OF RHS:        1
        NUMBER OF FLOPS:      5.005e+05
        SOLVER ELAPSED TIME:  1ms

               CONVERGENCE CHECKS FOR EQUILIBRIUM ITERATION     1


 AVERAGE FORCE                      3.318E-04   TIME AVG. FORCE       8.093E-05
 LARGEST SCALED RESIDUAL FORCE     -1.270E-09   AT NODE         26   DOF  1
   INSTANCE: PART-1-1                                                                        
  CORRESPONDING RESIDUAL FORCE     -1.270E-09
 LARGEST INCREMENT OF DISP.         4.800E-04   AT NODE          1   DOF  1
   INSTANCE: PART-1-1                                                                        
 LARGEST CORRECTION TO DISP.        1.673E-07   AT NODE         15   DOF  2
   INSTANCE: PART-1-1                                                                        
          THE FORCE     EQUILIBRIUM EQUATIONS HAVE CONVERGED

 AVERAGE HEAT FLUX                  3.790E+10   TIME AVG. HEAT FLUX   5.829E+10
 LARGEST RESIDUAL HEAT FLUX         2.433E+09   AT NODE          9   DOF 11
   INSTANCE: PART-1-1                                                                        
 LARGEST INCREMENT OF TEMP.         1.264E+11   AT NODE          5   DOF 11
   INSTANCE: PART-1-1                                                                        
 LARGEST CORRECTION TO TEMP.        7.899E+09   AT NODE          9   DOF 11
   INSTANCE: PART-1-1                                                                        
          HEAT FLUX EQUILIBRIUM NOT ACHIEVED WITHIN TOLERANCE.
 
	UNSYMMETRIC NEW DIRECT SPARSE SOLVER RUNNING ON
 	1 HOST x 1 MPI RANK PER HOST x 1 THREAD PER RANK
        NUMBER OF EQUATIONS:  114
        NUMBER OF RHS:        1
        NUMBER OF FLOPS:      5.005e+05
        SOLVER ELAPSED TIME:  1ms

               CONVERGENCE CHECKS FOR EQUILIBRIUM ITERATION     2


 AVERAGE FORCE                      3.318E-04   TIME AVG. FORCE       8.093E-05
 LARGEST SCALED RESIDUAL FORCE     -1.491E-11   AT NODE         22   DOF  1
   INSTANCE: PART-1-1                                                                        
  CORRESPONDING RESIDUAL FORCE     -1.491E-11
 LARGEST INCREMENT OF DISP.         4.800E-04   AT NODE          1   DOF  1
   INSTANCE: PART-1-1                                                                        
 LARGEST CORRECTION TO DISP.       -9.019E-10   AT NODE         23   DOF  3
   INSTANCE: PART-1-1                                                                        
          THE FORCE     EQUILIBRIUM EQUATIONS HAVE CONVERGED

 AVERAGE HEAT FLUX                  3.789E+10   TIME AVG. HEAT FLUX   5.829E+10
 LARGEST RESIDUAL HEAT FLUX         9.092E+07   AT NODE          9   DOF 11
   INSTANCE: PART-1-1                                                                        
 LARGEST INCREMENT OF TEMP.         1.264E+11   AT NODE          5   DOF 11
   INSTANCE: PART-1-1                                                                        
 LARGEST CORRECTION TO TEMP.        2.023E+08   AT NODE          9   DOF 11
   INSTANCE: PART-1-1                                                                        
          THE HEAT FLUX EQUILIBRIUM EQUATIONS HAVE CONVERGED

 MAXIMUM NON-PRESCRIBED INCREMENT IN TEMPERATURE IS   1.794E+10
          TIME INCREMENT MAY NOW INCREASE TO    7.200E-03

 ITERATION SUMMARY FOR THE INCREMENT:   2 TOTAL ITERATIONS, OF WHICH
   0 ARE SEVERE DISCONTINUITY ITERATIONS AND  2 ARE EQUILIBRIUM ITERATIONS.

 TIME INCREMENT COMPLETED  4.800E-03,  FRACTION OF STEP COMPLETED  1.130E-02
 STEP TIME COMPLETED       1.130E-02,  TOTAL TIME COMPLETED        1.130E-02


  INCREMENT    10 STARTS. ATTEMPT NUMBER  1, TIME INCREMENT  7.200E-03
 
	UNSYMMETRIC NEW DIRECT SPARSE SOLVER RUNNING ON
 	1 HOST x 1 MPI RANK PER HOST x 1 THREAD PER RANK
        NUMBER OF EQUATIONS:  114
        NUMBER OF RHS:        1
        NUMBER OF FLOPS:      5.005e+05
        SOLVER ELAPSED TIME:  1ms

               CONVERGENCE CHECKS FOR EQUILIBRIUM ITERATION     1


 AVERAGE FORCE                      5.430E-04   TIME AVG. FORCE       1.271E-04
 LARGEST SCALED RESIDUAL FORCE     -4.147E-09   AT NODE         26   DOF  1
   INSTANCE: PART-1-1                                                                        
  CORRESPONDING RESIDUAL FORCE     -4.147E-09
 LARGEST INCREMENT OF DISP.         7.200E-04   AT NODE          1   DOF  1
   INSTANCE: PART-1-1                                                                        
 LARGEST CORRECTION TO DISP.        3.753E-07   AT NODE         15   DOF  2
   INSTANCE: PART-1-1                                                                        
          THE FORCE     EQUILIBRIUM EQUATIONS HAVE CONVERGED

 AVERAGE HEAT FLUX                  3.328E+10   TIME AVG. HEAT FLUX   5.578E+10
 LARGEST RESIDUAL HEAT FLUX         6.187E+09   AT NODE          9   DOF 11
   INSTANCE: PART-1-1                                                                        
 LARGEST INCREMENT OF TEMP.         1.895E+11   AT NODE          5   DOF 11
   INSTANCE: PART-1-1                                                                        
 LARGEST CORRECTION TO TEMP.        1.713E+10   AT NODE          9   DOF 11
   INSTANCE: PART-1-1                                                                        
          HEAT FLUX EQUILIBRIUM NOT ACHIEVED WITHIN TOLERANCE.
 
	UNSYMMETRIC NEW DIRECT SPARSE SOLVER RUNNING ON
 	1 HOST x 1 MPI RANK PER HOST x 1 THREAD PER RANK
        NUMBER OF EQUATIONS:  114
        NUMBER OF RHS:        1
        NUMBER OF FLOPS:      5.005e+05
        SOLVER ELAPSED TIME:  1ms

               CONVERGENCE CHECKS FOR EQUILIBRIUM ITERATION     2


 AVERAGE FORCE                      5.430E-04   TIME AVG. FORCE       1.271E-04
 LARGEST SCALED RESIDUAL FORCE     -7.236E-11   AT NODE         22   DOF  1
   INSTANCE: PART-1-1                                                                        
  CORRESPONDING RESIDUAL FORCE     -7.236E-11
 LARGEST INCREMENT OF DISP.         7.200E-04   AT NODE          1   DOF  1
   INSTANCE: PART-1-1                                                                        
 LARGEST CORRECTION TO DISP.       -2.921E-09   AT NODE         23   DOF  3
   INSTANCE: PART-1-1                                                                        
          THE FORCE     EQUILIBRIUM EQUATIONS HAVE CONVERGED

 AVERAGE HEAT FLUX                  3.323E+10   TIME AVG. HEAT FLUX   5.578E+10
 LARGEST RESIDUAL HEAT FLUX         4.583E+08   AT NODE          9   DOF 11
   INSTANCE: PART-1-1                                                                        
 LARGEST INCREMENT OF TEMP.         1.895E+11   AT NODE          5   DOF 11
   INSTANCE: PART-1-1                                                                        
 LARGEST CORRECTION TO TEMP.        8.695E+08   AT NODE          9   DOF 11
   INSTANCE: PART-1-1                                                                        
          HEAT FLUX EQUILIBRIUM NOT ACHIEVED WITHIN TOLERANCE.
 
	UNSYMMETRIC NEW DIRECT SPARSE SOLVER RUNNING ON
 	1 HOST x 1 MPI RANK PER HOST x 1 THREAD PER RANK
        NUMBER OF EQUATIONS:  114
        NUMBER OF RHS:        1
        NUMBER OF FLOPS:      5.005e+05
        SOLVER ELAPSED TIME:  1ms

               CONVERGENCE CHECKS FOR EQUILIBRIUM ITERATION     3


 AVERAGE FORCE                      5.430E-04   TIME AVG. FORCE       1.271E-04
 LARGEST SCALED RESIDUAL FORCE      1.074E-14   AT NODE         22   DOF  1
   INSTANCE: PART-1-1                                                                        
  CORRESPONDING RESIDUAL FORCE      1.074E-14
 LARGEST INCREMENT OF DISP.         7.200E-04   AT NODE          1   DOF  1
   INSTANCE: PART-1-1                                                                        
 LARGEST CORRECTION TO DISP.       -1.092E-12   AT NODE         23   DOF  3
   INSTANCE: PART-1-1                                                                        
          THE FORCE     EQUILIBRIUM EQUATIONS HAVE CONVERGED

 AVERAGE HEAT FLUX                  3.323E+10   TIME AVG. HEAT FLUX   5.578E+10
 LARGEST RESIDUAL HEAT FLUX         2.273E+07   AT NODE          9   DOF 11
   INSTANCE: PART-1-1                                                                        
 LARGEST INCREMENT OF TEMP.         1.895E+11   AT NODE          5   DOF 11
   INSTANCE: PART-1-1                                                                        
 LARGEST CORRECTION TO TEMP.        6.056E+07   AT NODE          9   DOF 11
   INSTANCE: PART-1-1                                                                        
          THE HEAT FLUX EQUILIBRIUM EQUATIONS HAVE CONVERGED

 MAXIMUM NON-PRESCRIBED INCREMENT IN TEMPERATURE IS   4.498E+10
          TIME INCREMENT MAY NOW INCREASE TO    1.000E-02

 ITERATION SUMMARY FOR THE INCREMENT:   3 TOTAL ITERATIONS, OF WHICH
   0 ARE SEVERE DISCONTINUITY ITERATIONS AND  3 ARE EQUILIBRIUM ITERATIONS.

 TIME INCREMENT COMPLETED  7.200E-03,  FRACTION OF STEP COMPLETED  1.850E-02
 STEP TIME COMPLETED       1.850E-02,  TOTAL TIME COMPLETED        1.850E-02


  INCREMENT    11 STARTS. ATTEMPT NUMBER  1, TIME INCREMENT  1.000E-02
 
	UNSYMMETRIC NEW DIRECT SPARSE SOLVER RUNNING ON
 	1 HOST x 1 MPI RANK PER HOST x 1 THREAD PER RANK
        NUMBER OF EQUATIONS:  114
        NUMBER OF RHS:        1
        NUMBER OF FLOPS:      5.005e+05
        SOLVER ELAPSED TIME:  1ms

               CONVERGENCE CHECKS FOR EQUILIBRIUM ITERATION     1


 AVERAGE FORCE                      8.361E-04   TIME AVG. FORCE       1.916E-04
 LARGEST SCALED RESIDUAL FORCE     -1.092E-08   AT NODE         26   DOF  1
   INSTANCE: PART-1-1                                                                        
  CORRESPONDING RESIDUAL FORCE     -1.092E-08
 LARGEST INCREMENT OF DISP.         1.000E-03   AT NODE          1   DOF  1
   INSTANCE: PART-1-1                                                                        
 LARGEST CORRECTION TO DISP.        7.521E-07   AT NODE         15   DOF  2
   INSTANCE: PART-1-1                                                                        
          THE FORCE     EQUILIBRIUM EQUATIONS HAVE CONVERGED

 AVERAGE HEAT FLUX                  2.940E+10   TIME AVG. HEAT FLUX   5.338E+10
 LARGEST RESIDUAL HEAT FLUX         9.343E+09   AT NODE          9   DOF 11
   INSTANCE: PART-1-1                                                                        
 LARGEST INCREMENT OF TEMP.         2.632E+11   AT NODE          5   DOF 11
   INSTANCE: PART-1-1                                                                        
 LARGEST CORRECTION TO TEMP.        2.729E+10   AT NODE          9   DOF 11
   INSTANCE: PART-1-1                                                                        
          HEAT FLUX EQUILIBRIUM NOT ACHIEVED WITHIN TOLERANCE.
 
	UNSYMMETRIC NEW DIRECT SPARSE SOLVER RUNNING ON
 	1 HOST x 1 MPI RANK PER HOST x 1 THREAD PER RANK
        NUMBER OF EQUATIONS:  114
        NUMBER OF RHS:        1
        NUMBER OF FLOPS:      5.005e+05
        SOLVER ELAPSED TIME:  1ms

               CONVERGENCE CHECKS FOR EQUILIBRIUM ITERATION     2


 AVERAGE FORCE                      8.361E-04   TIME AVG. FORCE       1.916E-04
 LARGEST SCALED RESIDUAL FORCE     -2.618E-10   AT NODE         22   DOF  1
   INSTANCE: PART-1-1                                                                        
  CORRESPONDING RESIDUAL FORCE     -2.618E-10
 LARGEST INCREMENT OF DISP.         1.000E-03   AT NODE          1   DOF  1
   INSTANCE: PART-1-1                                                                        
 LARGEST CORRECTION TO DISP.       -7.626E-09   AT NODE         23   DOF  3
   INSTANCE: PART-1-1                                                                        
          THE FORCE     EQUILIBRIUM EQUATIONS HAVE CONVERGED

 AVERAGE HEAT FLUX                  2.928E+10   TIME AVG. HEAT FLUX   5.337E+10
 LARGEST RESIDUAL HEAT FLUX         9.580E+08   AT NODE          9   DOF 11
   INSTANCE: PART-1-1                                                                        
 LARGEST INCREMENT OF TEMP.         2.632E+11   AT NODE          5   DOF 11
   INSTANCE: PART-1-1                                                                        
 LARGEST CORRECTION TO TEMP.        2.011E+09   AT NODE          9   DOF 11
   INSTANCE: PART-1-1                                                                        
          HEAT FLUX EQUILIBRIUM NOT ACHIEVED WITHIN TOLERANCE.
 
	UNSYMMETRIC NEW DIRECT SPARSE SOLVER RUNNING ON
 	1 HOST x 1 MPI RANK PER HOST x 1 THREAD PER RANK
        NUMBER OF EQUATIONS:  114
        NUMBER OF RHS:        1
        NUMBER OF FLOPS:      5.005e+05
        SOLVER ELAPSED TIME:  1ms

               CONVERGENCE CHECKS FOR EQUILIBRIUM ITERATION     3


 AVERAGE FORCE                      8.361E-04   TIME AVG. FORCE       1.916E-04
 LARGEST SCALED RESIDUAL FORCE     -5.338E-14   AT NODE         26   DOF  1
   INSTANCE: PART-1-1                                                                        
  CORRESPONDING RESIDUAL FORCE     -5.338E-14
 LARGEST INCREMENT OF DISP.         1.000E-03   AT NODE          1   DOF  1
   INSTANCE: PART-1-1                                                                        
 LARGEST CORRECTION TO DISP.       -3.875E-12   AT NODE         23   DOF  3
   INSTANCE: PART-1-1                                                                        
          THE FORCE     EQUILIBRIUM EQUATIONS HAVE CONVERGED

 AVERAGE HEAT FLUX                  2.927E+10   TIME AVG. HEAT FLUX   5.337E+10
 LARGEST RESIDUAL HEAT FLUX         6.196E+07   AT NODE          9   DOF 11
   INSTANCE: PART-1-1                                                                        
 LARGEST INCREMENT OF TEMP.         2.632E+11   AT NODE          5   DOF 11
   INSTANCE: PART-1-1                                                                        
 LARGEST CORRECTION TO TEMP.        1.910E+08   AT NODE          9   DOF 11
   INSTANCE: PART-1-1                                                                        
          THE HEAT FLUX EQUILIBRIUM EQUATIONS HAVE CONVERGED

 MAXIMUM NON-PRESCRIBED INCREMENT IN TEMPERATURE IS   9.197E+10

 ITERATION SUMMARY FOR THE INCREMENT:   3 TOTAL ITERATIONS, OF WHICH
   0 ARE SEVERE DISCONTINUITY ITERATIONS AND  3 ARE EQUILIBRIUM ITERATIONS.

 TIME INCREMENT COMPLETED  1.000E-02,  FRACTION OF STEP COMPLETED  2.850E-02
 STEP TIME COMPLETED       2.850E-02,  TOTAL TIME COMPLETED        2.850E-02


  INCREMENT    12 STARTS. ATTEMPT NUMBER  1, TIME INCREMENT  1.000E-02
 
	UNSYMMETRIC NEW DIRECT SPARSE SOLVER RUNNING ON
 	1 HOST x 1 MPI RANK PER HOST x 1 THREAD PER RANK
        NUMBER OF EQUATIONS:  114
        NUMBER OF RHS:        1
        NUMBER OF FLOPS:      5.005e+05
        SOLVER ELAPSED TIME:  1ms

               CONVERGENCE CHECKS FOR EQUILIBRIUM ITERATION     1


 AVERAGE FORCE                      1.129E-03   TIME AVG. FORCE       2.697E-04
 LARGEST SCALED RESIDUAL FORCE     -1.187E-08   AT NODE         26   DOF  1
   INSTANCE: PART-1-1                                                                        
  CORRESPONDING RESIDUAL FORCE     -1.187E-08
 LARGEST INCREMENT OF DISP.         1.000E-03   AT NODE          1   DOF  1
   INSTANCE: PART-1-1                                                                        
 LARGEST CORRECTION TO DISP.        9.099E-07   AT NODE         15   DOF  2
   INSTANCE: PART-1-1                                                                        
          THE FORCE     EQUILIBRIUM EQUATIONS HAVE CONVERGED

 AVERAGE HEAT FLUX                  2.614E+10   TIME AVG. HEAT FLUX   5.110E+10
 LARGEST RESIDUAL HEAT FLUX         5.810E+09   AT NODE          9   DOF 11
   INSTANCE: PART-1-1                                                                        
 LARGEST INCREMENT OF TEMP.         2.632E+11   AT NODE          5   DOF 11
   INSTANCE: PART-1-1                                                                        
 LARGEST CORRECTION TO TEMP.        1.888E+10   AT NODE          9   DOF 11
   INSTANCE: PART-1-1                                                                        
          HEAT FLUX EQUILIBRIUM NOT ACHIEVED WITHIN TOLERANCE.
 
	UNSYMMETRIC NEW DIRECT SPARSE SOLVER RUNNING ON
 	1 HOST x 1 MPI RANK PER HOST x 1 THREAD PER RANK
        NUMBER OF EQUATIONS:  114
        NUMBER OF RHS:        1
        NUMBER OF FLOPS:      5.005e+05
        SOLVER ELAPSED TIME:  1ms

               CONVERGENCE CHECKS FOR EQUILIBRIUM ITERATION     2


 AVERAGE FORCE                      1.129E-03   TIME AVG. FORCE       2.697E-04
 LARGEST SCALED RESIDUAL FORCE     -2.838E-10   AT NODE         22   DOF  1
   INSTANCE: PART-1-1                                                                        
  CORRESPONDING RESIDUAL FORCE     -2.838E-10
 LARGEST INCREMENT OF DISP.         1.000E-03   AT NODE          1   DOF  1
   INSTANCE: PART-1-1                                                                        
 LARGEST CORRECTION TO DISP.       -8.288E-09   AT NODE         23   DOF  3
   INSTANCE: PART-1-1                                                                        
          THE FORCE     EQUILIBRIUM EQUATIONS HAVE CONVERGED

 AVERAGE HEAT FLUX                  2.606E+10   TIME AVG. HEAT FLUX   5.109E+10
 LARGEST RESIDUAL HEAT FLUX         4.400E+08   AT NODE          9   DOF 11
   INSTANCE: PART-1-1                                                                        
 LARGEST INCREMENT OF TEMP.         2.632E+11   AT NODE          5   DOF 11
   INSTANCE: PART-1-1                                                                        
 LARGEST CORRECTION TO TEMP.        1.378E+09   AT NODE          9   DOF 11
   INSTANCE: PART-1-1                                                                        
          HEAT FLUX EQUILIBRIUM NOT ACHIEVED WITHIN TOLERANCE.
 
	UNSYMMETRIC NEW DIRECT SPARSE SOLVER RUNNING ON
 	1 HOST x 1 MPI RANK PER HOST x 1 THREAD PER RANK
        NUMBER OF EQUATIONS:  114
        NUMBER OF RHS:        1
        NUMBER OF FLOPS:      5.005e+05
        SOLVER ELAPSED TIME:  1ms

               CONVERGENCE CHECKS FOR EQUILIBRIUM ITERATION     3


 AVERAGE FORCE                      1.129E-03   TIME AVG. FORCE       2.697E-04
 LARGEST SCALED RESIDUAL FORCE     -6.170E-14   AT NODE         26   DOF  1
   INSTANCE: PART-1-1                                                                        
  CORRESPONDING RESIDUAL FORCE     -6.170E-14
 LARGEST INCREMENT OF DISP.         1.000E-03   AT NODE          1   DOF  1
   INSTANCE: PART-1-1                                                                        
 LARGEST CORRECTION TO DISP.       -4.120E-12   AT NODE         23   DOF  3
   INSTANCE: PART-1-1                                                                        
          THE FORCE     EQUILIBRIUM EQUATIONS HAVE CONVERGED

 AVERAGE HEAT FLUX                  2.606E+10   TIME AVG. HEAT FLUX   5.109E+10
 LARGEST RESIDUAL HEAT FLUX         3.086E+07   AT NODE          9   DOF 11
   INSTANCE: PART-1-1                                                                        
 LARGEST INCREMENT OF TEMP.         2.632E+11   AT NODE          5   DOF 11
   INSTANCE: PART-1-1                                                                        
 LARGEST CORRECTION TO TEMP.        1.033E+08   AT NODE          9   DOF 11
   INSTANCE: PART-1-1                                                                        
          THE HEAT FLUX EQUILIBRIUM EQUATIONS HAVE CONVERGED

 MAXIMUM NON-PRESCRIBED INCREMENT IN TEMPERATURE IS   1.123E+11

 ITERATION SUMMARY FOR THE INCREMENT:   3 TOTAL ITERATIONS, OF WHICH
   0 ARE SEVERE DISCONTINUITY ITERATIONS AND  3 ARE EQUILIBRIUM ITERATIONS.

 TIME INCREMENT COMPLETED  1.000E-02,  FRACTION OF STEP COMPLETED  3.850E-02
 STEP TIME COMPLETED       3.850E-02,  TOTAL TIME COMPLETED        3.850E-02


  INCREMENT    13 STARTS. ATTEMPT NUMBER  1, TIME INCREMENT  1.000E-02
 
	UNSYMMETRIC NEW DIRECT SPARSE SOLVER RUNNING ON
 	1 HOST x 1 MPI RANK PER HOST x 1 THREAD PER RANK
        NUMBER OF EQUATIONS:  114
        NUMBER OF RHS:        1
        NUMBER OF FLOPS:      5.005e+05
        SOLVER ELAPSED TIME:  1ms

               CONVERGENCE CHECKS FOR EQUILIBRIUM ITERATION     1


 AVERAGE FORCE                      1.426E-03   TIME AVG. FORCE       3.586E-04
 LARGEST SCALED RESIDUAL FORCE     -1.101E-08   AT NODE         26   DOF  1
   INSTANCE: PART-1-1                                                                        
  CORRESPONDING RESIDUAL FORCE     -1.101E-08
 LARGEST INCREMENT OF DISP.         1.000E-03   AT NODE          1   DOF  1
   INSTANCE: PART-1-1                                                                        
 LARGEST CORRECTION TO DISP.        9.034E-07   AT NODE         15   DOF  2
   INSTANCE: PART-1-1                                                                        
          THE FORCE     EQUILIBRIUM EQUATIONS HAVE CONVERGED

 AVERAGE HEAT FLUX                  2.314E+10   TIME AVG. HEAT FLUX   4.894E+10
 LARGEST RESIDUAL HEAT FLUX         3.101E+09   AT NODE          9   DOF 11
   INSTANCE: PART-1-1                                                                        
 LARGEST INCREMENT OF TEMP.         2.632E+11   AT NODE          5   DOF 11
   INSTANCE: PART-1-1                                                                        
 LARGEST CORRECTION TO TEMP.        9.742E+09   AT NODE          9   DOF 11
   INSTANCE: PART-1-1                                                                        
          HEAT FLUX EQUILIBRIUM NOT ACHIEVED WITHIN TOLERANCE.
 
	UNSYMMETRIC NEW DIRECT SPARSE SOLVER RUNNING ON
 	1 HOST x 1 MPI RANK PER HOST x 1 THREAD PER RANK
        NUMBER OF EQUATIONS:  114
        NUMBER OF RHS:        1
        NUMBER OF FLOPS:      5.005e+05
        SOLVER ELAPSED TIME:  1ms

               CONVERGENCE CHECKS FOR EQUILIBRIUM ITERATION     2


 AVERAGE FORCE                      1.426E-03   TIME AVG. FORCE       3.586E-04
 LARGEST SCALED RESIDUAL FORCE     -2.619E-10   AT NODE         22   DOF  1
   INSTANCE: PART-1-1                                                                        
  CORRESPONDING RESIDUAL FORCE     -2.619E-10
 LARGEST INCREMENT OF DISP.         1.000E-03   AT NODE          1   DOF  1
   INSTANCE: PART-1-1                                                                        
 LARGEST CORRECTION TO DISP.       -7.668E-09   AT NODE         23   DOF  3
   INSTANCE: PART-1-1                                                                        
          THE FORCE     EQUILIBRIUM EQUATIONS HAVE CONVERGED

 AVERAGE HEAT FLUX                  2.311E+10   TIME AVG. HEAT FLUX   4.894E+10
 LARGEST RESIDUAL HEAT FLUX         9.612E+07   AT NODE          9   DOF 11
   INSTANCE: PART-1-1                                                                        
 LARGEST INCREMENT OF TEMP.         2.632E+11   AT NODE          5   DOF 11
   INSTANCE: PART-1-1                                                                        
 LARGEST CORRECTION TO TEMP.        7.582E+08   AT NODE          9   DOF 11
   INSTANCE: PART-1-1                                                                        
          THE HEAT FLUX EQUILIBRIUM EQUATIONS HAVE CONVERGED

 MAXIMUM NON-PRESCRIBED INCREMENT IN TEMPERATURE IS   1.228E+11

 ITERATION SUMMARY FOR THE INCREMENT:   2 TOTAL ITERATIONS, OF WHICH
   0 ARE SEVERE DISCONTINUITY ITERATIONS AND  2 ARE EQUILIBRIUM ITERATIONS.

 TIME INCREMENT COMPLETED  1.000E-02,  FRACTION OF STEP COMPLETED  4.850E-02
 STEP TIME COMPLETED       4.850E-02,  TOTAL TIME COMPLETED        4.850E-02


  INCREMENT    14 STARTS. ATTEMPT NUMBER  1, TIME INCREMENT  1.000E-02
 
	UNSYMMETRIC NEW DIRECT SPARSE SOLVER RUNNING ON
 	1 HOST x 1 MPI RANK PER HOST x 1 THREAD PER RANK
        NUMBER OF EQUATIONS:  114
        NUMBER OF RHS:        1
        NUMBER OF FLOPS:      5.005e+05
        SOLVER ELAPSED TIME:  1ms

               CONVERGENCE CHECKS FOR EQUILIBRIUM ITERATION     1


 AVERAGE FORCE                      1.719E-03   TIME AVG. FORCE       4.558E-04
 LARGEST SCALED RESIDUAL FORCE     -1.022E-08   AT NODE         26   DOF  1
   INSTANCE: PART-1-1                                                                        
  CORRESPONDING RESIDUAL FORCE     -1.022E-08
 LARGEST INCREMENT OF DISP.         1.000E-03   AT NODE          1   DOF  1
   INSTANCE: PART-1-1                                                                        
 LARGEST CORRECTION TO DISP.        8.970E-07   AT NODE         15   DOF  2
   INSTANCE: PART-1-1                                                                        
          THE FORCE     EQUILIBRIUM EQUATIONS HAVE CONVERGED

 AVERAGE HEAT FLUX                  2.053E+10   TIME AVG. HEAT FLUX   4.691E+10
 LARGEST RESIDUAL HEAT FLUX         1.626E+09   AT NODE          9   DOF 11
   INSTANCE: PART-1-1                                                                        
 LARGEST INCREMENT OF TEMP.         2.632E+11   AT NODE          5   DOF 11
   INSTANCE: PART-1-1                                                                        
 LARGEST CORRECTION TO TEMP.        3.325E+09   AT NODE          2   DOF 11
   INSTANCE: PART-1-1                                                                        
          HEAT FLUX EQUILIBRIUM NOT ACHIEVED WITHIN TOLERANCE.
 
	UNSYMMETRIC NEW DIRECT SPARSE SOLVER RUNNING ON
 	1 HOST x 1 MPI RANK PER HOST x 1 THREAD PER RANK
        NUMBER OF EQUATIONS:  114
        NUMBER OF RHS:        1
        NUMBER OF FLOPS:      5.005e+05
        SOLVER ELAPSED TIME:  1ms

               CONVERGENCE CHECKS FOR EQUILIBRIUM ITERATION     2


 AVERAGE FORCE                      1.719E-03   TIME AVG. FORCE       4.558E-04
 LARGEST SCALED RESIDUAL FORCE     -2.420E-10   AT NODE         22   DOF  1
   INSTANCE: PART-1-1                                                                        
  CORRESPONDING RESIDUAL FORCE     -2.420E-10
 LARGEST INCREMENT OF DISP.         1.000E-03   AT NODE          1   DOF  1
   INSTANCE: PART-1-1                                                                        
 LARGEST CORRECTION TO DISP.       -7.105E-09   AT NODE         23   DOF  3
   INSTANCE: PART-1-1                                                                        
          THE FORCE     EQUILIBRIUM EQUATIONS HAVE CONVERGED

 AVERAGE HEAT FLUX                  2.052E+10   TIME AVG. HEAT FLUX   4.691E+10
 LARGEST RESIDUAL HEAT FLUX         4.406E+07   AT NODE          2   DOF 11
   INSTANCE: PART-1-1                                                                        
 LARGEST INCREMENT OF TEMP.         2.632E+11   AT NODE          5   DOF 11
   INSTANCE: PART-1-1                                                                        
 LARGEST CORRECTION TO TEMP.        3.899E+08   AT NODE          9   DOF 11
   INSTANCE: PART-1-1                                                                        
          THE HEAT FLUX EQUILIBRIUM EQUATIONS HAVE CONVERGED

 MAXIMUM NON-PRESCRIBED INCREMENT IN TEMPERATURE IS   1.264E+11

 ITERATION SUMMARY FOR THE INCREMENT:   2 TOTAL ITERATIONS, OF WHICH
   0 ARE SEVERE DISCONTINUITY ITERATIONS AND  2 ARE EQUILIBRIUM ITERATIONS.

 TIME INCREMENT COMPLETED  1.000E-02,  FRACTION OF STEP COMPLETED  5.850E-02
 STEP TIME COMPLETED       5.850E-02,  TOTAL TIME COMPLETED        5.850E-02


  INCREMENT    15 STARTS. ATTEMPT NUMBER  1, TIME INCREMENT  1.000E-02
 
	UNSYMMETRIC NEW DIRECT SPARSE SOLVER RUNNING ON
 	1 HOST x 1 MPI RANK PER HOST x 1 THREAD PER RANK
        NUMBER OF EQUATIONS:  114
        NUMBER OF RHS:        1
        NUMBER OF FLOPS:      5.005e+05
        SOLVER ELAPSED TIME:  1ms

               CONVERGENCE CHECKS FOR EQUILIBRIUM ITERATION     1


 AVERAGE FORCE                      2.012E-03   TIME AVG. FORCE       5.595E-04
 LARGEST SCALED RESIDUAL FORCE     -9.490E-09   AT NODE         26   DOF  1
   INSTANCE: PART-1-1                                                                        
  CORRESPONDING RESIDUAL FORCE     -9.490E-09
 LARGEST INCREMENT OF DISP.         1.000E-03   AT NODE          1   DOF  1
   INSTANCE: PART-1-1                                                                        
 LARGEST CORRECTION TO DISP.        8.907E-07   AT NODE         15   DOF  2
   INSTANCE: PART-1-1                                                                        
          THE FORCE     EQUILIBRIUM EQUATIONS HAVE CONVERGED

 AVERAGE HEAT FLUX                  1.840E+10   TIME AVG. HEAT FLUX   4.501E+10
 LARGEST RESIDUAL HEAT FLUX         9.097E+08   AT NODE          9   DOF 11
   INSTANCE: PART-1-1                                                                        
 LARGEST INCREMENT OF TEMP.         2.632E+11   AT NODE          5   DOF 11
   INSTANCE: PART-1-1                                                                        
 LARGEST CORRECTION TO TEMP.        3.332E+09   AT NODE          2   DOF 11
   INSTANCE: PART-1-1                                                                        
          HEAT FLUX EQUILIBRIUM NOT ACHIEVED WITHIN TOLERANCE.
 
	UNSYMMETRIC NEW DIRECT SPARSE SOLVER RUNNING ON
 	1 HOST x 1 MPI RANK PER HOST x 1 THREAD PER RANK
        NUMBER OF EQUATIONS:  114
        NUMBER OF RHS:        1
        NUMBER OF FLOPS:      5.005e+05
        SOLVER ELAPSED TIME:  1ms

               CONVERGENCE CHECKS FOR EQUILIBRIUM ITERATION     2


 AVERAGE FORCE                      2.012E-03   TIME AVG. FORCE       5.595E-04
 LARGEST SCALED RESIDUAL FORCE      2.240E-10   AT NODE         26   DOF  1
   INSTANCE: PART-1-1                                                                        
  CORRESPONDING RESIDUAL FORCE      2.240E-10
 LARGEST INCREMENT OF DISP.         1.000E-03   AT NODE          1   DOF  1
   INSTANCE: PART-1-1                                                                        
 LARGEST CORRECTION TO DISP.       -6.593E-09   AT NODE         23   DOF  3
   INSTANCE: PART-1-1                                                                        
          THE FORCE     EQUILIBRIUM EQUATIONS HAVE CONVERGED

 AVERAGE HEAT FLUX                  1.839E+10   TIME AVG. HEAT FLUX   4.501E+10
 LARGEST RESIDUAL HEAT FLUX        -5.083E+07   AT NODE          9   DOF 11
   INSTANCE: PART-1-1                                                                        
 LARGEST INCREMENT OF TEMP.         2.632E+11   AT NODE          5   DOF 11
   INSTANCE: PART-1-1                                                                        
 LARGEST CORRECTION TO TEMP.       -2.631E+08   AT NODE          2   DOF 11
   INSTANCE: PART-1-1                                                                        
          THE HEAT FLUX EQUILIBRIUM EQUATIONS HAVE CONVERGED

 MAXIMUM NON-PRESCRIBED INCREMENT IN TEMPERATURE IS   1.262E+11

 ITERATION SUMMARY FOR THE INCREMENT:   2 TOTAL ITERATIONS, OF WHICH
   0 ARE SEVERE DISCONTINUITY ITERATIONS AND  2 ARE EQUILIBRIUM ITERATIONS.

 TIME INCREMENT COMPLETED  1.000E-02,  FRACTION OF STEP COMPLETED  6.850E-02
 STEP TIME COMPLETED       6.850E-02,  TOTAL TIME COMPLETED        6.850E-02


  INCREMENT    16 STARTS. ATTEMPT NUMBER  1, TIME INCREMENT  1.000E-02
 
	UNSYMMETRIC NEW DIRECT SPARSE SOLVER RUNNING ON
 	1 HOST x 1 MPI RANK PER HOST x 1 THREAD PER RANK
        NUMBER OF EQUATIONS:  114
        NUMBER OF RHS:        1
        NUMBER OF FLOPS:      5.005e+05
        SOLVER ELAPSED TIME:  1ms

               CONVERGENCE CHECKS FOR EQUILIBRIUM ITERATION     1


 AVERAGE FORCE                      2.298E-03   TIME AVG. FORCE       6.682E-04
 LARGEST SCALED RESIDUAL FORCE     -8.813E-09   AT NODE         26   DOF  1
   INSTANCE: PART-1-1                                                                        
  CORRESPONDING RESIDUAL FORCE     -8.813E-09
 LARGEST INCREMENT OF DISP.         1.000E-03   AT NODE          1   DOF  1
   INSTANCE: PART-1-1                                                                        
 LARGEST CORRECTION TO DISP.        8.845E-07   AT NODE         15   DOF  2
   INSTANCE: PART-1-1                                                                        
          THE FORCE     EQUILIBRIUM EQUATIONS HAVE CONVERGED

 AVERAGE HEAT FLUX                  1.707E+10   TIME AVG. HEAT FLUX   4.326E+10
 LARGEST RESIDUAL HEAT FLUX         5.710E+08   AT NODE          9   DOF 11
   INSTANCE: PART-1-1                                                                        
 LARGEST INCREMENT OF TEMP.         2.632E+11   AT NODE          5   DOF 11
   INSTANCE: PART-1-1                                                                        
 LARGEST CORRECTION TO TEMP.        2.782E+09   AT NODE          2   DOF 11
   INSTANCE: PART-1-1                                                                        
          HEAT FLUX EQUILIBRIUM NOT ACHIEVED WITHIN TOLERANCE.
 
	UNSYMMETRIC NEW DIRECT SPARSE SOLVER RUNNING ON
 	1 HOST x 1 MPI RANK PER HOST x 1 THREAD PER RANK
        NUMBER OF EQUATIONS:  114
        NUMBER OF RHS:        1
        NUMBER OF FLOPS:      5.005e+05
        SOLVER ELAPSED TIME:  1ms

               CONVERGENCE CHECKS FOR EQUILIBRIUM ITERATION     2


 AVERAGE FORCE                      2.298E-03   TIME AVG. FORCE       6.682E-04
 LARGEST SCALED RESIDUAL FORCE      2.076E-10   AT NODE         26   DOF  1
   INSTANCE: PART-1-1                                                                        
  CORRESPONDING RESIDUAL FORCE      2.076E-10
 LARGEST INCREMENT OF DISP.         1.000E-03   AT NODE          1   DOF  1
   INSTANCE: PART-1-1                                                                        
 LARGEST CORRECTION TO DISP.       -6.127E-09   AT NODE         23   DOF  3
   INSTANCE: PART-1-1                                                                        
          THE FORCE     EQUILIBRIUM EQUATIONS HAVE CONVERGED

 AVERAGE HEAT FLUX                  1.706E+10   TIME AVG. HEAT FLUX   4.326E+10
 LARGEST RESIDUAL HEAT FLUX        -4.266E+07   AT NODE          9   DOF 11
   INSTANCE: PART-1-1                                                                        
 LARGEST INCREMENT OF TEMP.         2.632E+11   AT NODE          5   DOF 11
   INSTANCE: PART-1-1                                                                        
 LARGEST CORRECTION TO TEMP.       -1.913E+08   AT NODE          2   DOF 11
   INSTANCE: PART-1-1                                                                        
          THE HEAT FLUX EQUILIBRIUM EQUATIONS HAVE CONVERGED

 MAXIMUM NON-PRESCRIBED INCREMENT IN TEMPERATURE IS   1.248E+11

 ITERATION SUMMARY FOR THE INCREMENT:   2 TOTAL ITERATIONS, OF WHICH
   0 ARE SEVERE DISCONTINUITY ITERATIONS AND  2 ARE EQUILIBRIUM ITERATIONS.

 TIME INCREMENT COMPLETED  1.000E-02,  FRACTION OF STEP COMPLETED  7.850E-02
 STEP TIME COMPLETED       7.850E-02,  TOTAL TIME COMPLETED        7.850E-02


  INCREMENT    17 STARTS. ATTEMPT NUMBER  1, TIME INCREMENT  1.000E-02
 
	UNSYMMETRIC NEW DIRECT SPARSE SOLVER RUNNING ON
 	1 HOST x 1 MPI RANK PER HOST x 1 THREAD PER RANK
        NUMBER OF EQUATIONS:  114
        NUMBER OF RHS:        1
        NUMBER OF FLOPS:      5.005e+05
        SOLVER ELAPSED TIME:  1ms

               CONVERGENCE CHECKS FOR EQUILIBRIUM ITERATION     1


 AVERAGE FORCE                      2.590E-03   TIME AVG. FORCE       7.812E-04
 LARGEST SCALED RESIDUAL FORCE      8.456E-09   AT NODE         26   DOF  3
   INSTANCE: PART-1-1                                                                        
  CORRESPONDING RESIDUAL FORCE      8.456E-09
 LARGEST INCREMENT OF DISP.         1.000E-03   AT NODE          1   DOF  1
   INSTANCE: PART-1-1                                                                        
 LARGEST CORRECTION TO DISP.        8.783E-07   AT NODE         15   DOF  2
   INSTANCE: PART-1-1                                                                        
          THE FORCE     EQUILIBRIUM EQUATIONS HAVE CONVERGED

 AVERAGE HEAT FLUX                  1.540E+10   TIME AVG. HEAT FLUX   4.162E+10
 LARGEST RESIDUAL HEAT FLUX         3.948E+08   AT NODE          9   DOF 11
   INSTANCE: PART-1-1                                                                        
 LARGEST INCREMENT OF TEMP.         2.632E+11   AT NODE          5   DOF 11
   INSTANCE: PART-1-1                                                                        
 LARGEST CORRECTION TO TEMP.        2.144E+09   AT NODE          2   DOF 11
   INSTANCE: PART-1-1                                                                        
          HEAT FLUX EQUILIBRIUM NOT ACHIEVED WITHIN TOLERANCE.
 
	UNSYMMETRIC NEW DIRECT SPARSE SOLVER RUNNING ON
 	1 HOST x 1 MPI RANK PER HOST x 1 THREAD PER RANK
        NUMBER OF EQUATIONS:  114
        NUMBER OF RHS:        1
        NUMBER OF FLOPS:      5.005e+05
        SOLVER ELAPSED TIME:  1ms

               CONVERGENCE CHECKS FOR EQUILIBRIUM ITERATION     2


 AVERAGE FORCE                      2.590E-03   TIME AVG. FORCE       7.812E-04
 LARGEST SCALED RESIDUAL FORCE      1.927E-10   AT NODE         26   DOF  1
   INSTANCE: PART-1-1                                                                        
  CORRESPONDING RESIDUAL FORCE      1.927E-10
 LARGEST INCREMENT OF DISP.         1.000E-03   AT NODE          1   DOF  1
   INSTANCE: PART-1-1                                                                        
 LARGEST CORRECTION TO DISP.       -5.700E-09   AT NODE         23   DOF  3
   INSTANCE: PART-1-1                                                                        
          THE FORCE     EQUILIBRIUM EQUATIONS HAVE CONVERGED

 AVERAGE HEAT FLUX                  1.540E+10   TIME AVG. HEAT FLUX   4.162E+10
 LARGEST RESIDUAL HEAT FLUX        -3.103E+07   AT NODE          9   DOF 11
   INSTANCE: PART-1-1                                                                        
 LARGEST INCREMENT OF TEMP.         2.632E+11   AT NODE          5   DOF 11
   INSTANCE: PART-1-1                                                                        
 LARGEST CORRECTION TO TEMP.       -1.340E+08   AT NODE          2   DOF 11
   INSTANCE: PART-1-1                                                                        
          THE HEAT FLUX EQUILIBRIUM EQUATIONS HAVE CONVERGED

 MAXIMUM NON-PRESCRIBED INCREMENT IN TEMPERATURE IS   1.232E+11

 ITERATION SUMMARY FOR THE INCREMENT:   2 TOTAL ITERATIONS, OF WHICH
   0 ARE SEVERE DISCONTINUITY ITERATIONS AND  2 ARE EQUILIBRIUM ITERATIONS.

 TIME INCREMENT COMPLETED  1.000E-02,  FRACTION OF STEP COMPLETED  8.850E-02
 STEP TIME COMPLETED       8.850E-02,  TOTAL TIME COMPLETED        8.850E-02


  INCREMENT    18 STARTS. ATTEMPT NUMBER  1, TIME INCREMENT  1.000E-02
 
	UNSYMMETRIC NEW DIRECT SPARSE SOLVER RUNNING ON
 	1 HOST x 1 MPI RANK PER HOST x 1 THREAD PER RANK
        NUMBER OF EQUATIONS:  114
        NUMBER OF RHS:        1
        NUMBER OF FLOPS:      5.005e+05
        SOLVER ELAPSED TIME:  1ms

               CONVERGENCE CHECKS FOR EQUILIBRIUM ITERATION     1


 AVERAGE FORCE                      2.881E-03   TIME AVG. FORCE       8.979E-04
 LARGEST SCALED RESIDUAL FORCE      8.328E-09   AT NODE         26   DOF  3
   INSTANCE: PART-1-1                                                                        
  CORRESPONDING RESIDUAL FORCE      8.328E-09
 LARGEST INCREMENT OF DISP.         1.000E-03   AT NODE          1   DOF  1
   INSTANCE: PART-1-1                                                                        
 LARGEST CORRECTION TO DISP.        8.721E-07   AT NODE         15   DOF  2
   INSTANCE: PART-1-1                                                                        
          THE FORCE     EQUILIBRIUM EQUATIONS HAVE CONVERGED

 AVERAGE HEAT FLUX                  1.437E+10   TIME AVG. HEAT FLUX   4.011E+10
 LARGEST RESIDUAL HEAT FLUX         2.889E+08   AT NODE          9   DOF 11
   INSTANCE: PART-1-1                                                                        
 LARGEST INCREMENT OF TEMP.         2.632E+11   AT NODE          5   DOF 11
   INSTANCE: PART-1-1                                                                        
 LARGEST CORRECTION TO TEMP.        1.600E+09   AT NODE          2   DOF 11
   INSTANCE: PART-1-1                                                                        
          HEAT FLUX EQUILIBRIUM NOT ACHIEVED WITHIN TOLERANCE.
 
	UNSYMMETRIC NEW DIRECT SPARSE SOLVER RUNNING ON
 	1 HOST x 1 MPI RANK PER HOST x 1 THREAD PER RANK
        NUMBER OF EQUATIONS:  114
        NUMBER OF RHS:        1
        NUMBER OF FLOPS:      5.005e+05
        SOLVER ELAPSED TIME:  1ms

               CONVERGENCE CHECKS FOR EQUILIBRIUM ITERATION     2


 AVERAGE FORCE                      2.881E-03   TIME AVG. FORCE       8.979E-04
 LARGEST SCALED RESIDUAL FORCE      1.790E-10   AT NODE         26   DOF  1
   INSTANCE: PART-1-1                                                                        
  CORRESPONDING RESIDUAL FORCE      1.790E-10
 LARGEST INCREMENT OF DISP.         1.000E-03   AT NODE          1   DOF  1
   INSTANCE: PART-1-1                                                                        
 LARGEST CORRECTION TO DISP.       -5.311E-09   AT NODE         23   DOF  3
   INSTANCE: PART-1-1                                                                        
          THE FORCE     EQUILIBRIUM EQUATIONS HAVE CONVERGED

 AVERAGE HEAT FLUX                  1.437E+10   TIME AVG. HEAT FLUX   4.011E+10
 LARGEST RESIDUAL HEAT FLUX        -2.204E+07   AT NODE          9   DOF 11
   INSTANCE: PART-1-1                                                                        
 LARGEST INCREMENT OF TEMP.         2.632E+11   AT NODE          5   DOF 11
   INSTANCE: PART-1-1                                                                        
 LARGEST CORRECTION TO TEMP.       -9.389E+07   AT NODE          2   DOF 11
   INSTANCE: PART-1-1                                                                        
          THE HEAT FLUX EQUILIBRIUM EQUATIONS HAVE CONVERGED

 MAXIMUM NON-PRESCRIBED INCREMENT IN TEMPERATURE IS   1.219E+11

 ITERATION SUMMARY FOR THE INCREMENT:   2 TOTAL ITERATIONS, OF WHICH
   0 ARE SEVERE DISCONTINUITY ITERATIONS AND  2 ARE EQUILIBRIUM ITERATIONS.

 TIME INCREMENT COMPLETED  1.000E-02,  FRACTION OF STEP COMPLETED  9.850E-02
 STEP TIME COMPLETED       9.850E-02,  TOTAL TIME COMPLETED        9.850E-02


  INCREMENT    19 STARTS. ATTEMPT NUMBER  1, TIME INCREMENT  1.000E-02
 
	UNSYMMETRIC NEW DIRECT SPARSE SOLVER RUNNING ON
 	1 HOST x 1 MPI RANK PER HOST x 1 THREAD PER RANK
        NUMBER OF EQUATIONS:  114
        NUMBER OF RHS:        1
        NUMBER OF FLOPS:      5.005e+05
        SOLVER ELAPSED TIME:  1ms

               CONVERGENCE CHECKS FOR EQUILIBRIUM ITERATION     1


 AVERAGE FORCE                      3.172E-03   TIME AVG. FORCE       1.018E-03
 LARGEST SCALED RESIDUAL FORCE      8.208E-09   AT NODE         26   DOF  3
   INSTANCE: PART-1-1                                                                        
  CORRESPONDING RESIDUAL FORCE      8.208E-09
 LARGEST INCREMENT OF DISP.         1.000E-03   AT NODE          1   DOF  1
   INSTANCE: PART-1-1                                                                        
 LARGEST CORRECTION TO DISP.        8.660E-07   AT NODE         15   DOF  2
   INSTANCE: PART-1-1                                                                        
          THE FORCE     EQUILIBRIUM EQUATIONS HAVE CONVERGED

 AVERAGE HEAT FLUX                  1.356E+10   TIME AVG. HEAT FLUX   3.871E+10
 LARGEST RESIDUAL HEAT FLUX         2.162E+08   AT NODE          9   DOF 11
   INSTANCE: PART-1-1                                                                        
 LARGEST INCREMENT OF TEMP.         2.632E+11   AT NODE          5   DOF 11
   INSTANCE: PART-1-1                                                                        
 LARGEST CORRECTION TO TEMP.        1.188E+09   AT NODE          2   DOF 11
   INSTANCE: PART-1-1                                                                        
          HEAT FLUX EQUILIBRIUM NOT ACHIEVED WITHIN TOLERANCE.
 
	UNSYMMETRIC NEW DIRECT SPARSE SOLVER RUNNING ON
 	1 HOST x 1 MPI RANK PER HOST x 1 THREAD PER RANK
        NUMBER OF EQUATIONS:  114
        NUMBER OF RHS:        1
        NUMBER OF FLOPS:      5.005e+05
        SOLVER ELAPSED TIME:  1ms

               CONVERGENCE CHECKS FOR EQUILIBRIUM ITERATION     2


 AVERAGE FORCE                      3.172E-03   TIME AVG. FORCE       1.018E-03
 LARGEST SCALED RESIDUAL FORCE      1.665E-10   AT NODE         26   DOF  1
   INSTANCE: PART-1-1                                                                        
  CORRESPONDING RESIDUAL FORCE      1.665E-10
 LARGEST INCREMENT OF DISP.         1.000E-03   AT NODE          1   DOF  1
   INSTANCE: PART-1-1                                                                        
 LARGEST CORRECTION TO DISP.       -4.953E-09   AT NODE         23   DOF  3
   INSTANCE: PART-1-1                                                                        
          THE FORCE     EQUILIBRIUM EQUATIONS HAVE CONVERGED

 AVERAGE HEAT FLUX                  1.356E+10   TIME AVG. HEAT FLUX   3.871E+10
 LARGEST RESIDUAL HEAT FLUX        -1.592E+07   AT NODE          9   DOF 11
   INSTANCE: PART-1-1                                                                        
 LARGEST INCREMENT OF TEMP.         2.632E+11   AT NODE          5   DOF 11
   INSTANCE: PART-1-1                                                                        
 LARGEST CORRECTION TO TEMP.       -6.683E+07   AT NODE          2   DOF 11
   INSTANCE: PART-1-1                                                                        
          THE HEAT FLUX EQUILIBRIUM EQUATIONS HAVE CONVERGED

 MAXIMUM NON-PRESCRIBED INCREMENT IN TEMPERATURE IS   1.209E+11

 ITERATION SUMMARY FOR THE INCREMENT:   2 TOTAL ITERATIONS, OF WHICH
   0 ARE SEVERE DISCONTINUITY ITERATIONS AND  2 ARE EQUILIBRIUM ITERATIONS.

 TIME INCREMENT COMPLETED  1.000E-02,  FRACTION OF STEP COMPLETED  0.108    
 STEP TIME COMPLETED       0.108    ,  TOTAL TIME COMPLETED        0.108    


  INCREMENT    20 STARTS. ATTEMPT NUMBER  1, TIME INCREMENT  1.000E-02
 
	UNSYMMETRIC NEW DIRECT SPARSE SOLVER RUNNING ON
 	1 HOST x 1 MPI RANK PER HOST x 1 THREAD PER RANK
        NUMBER OF EQUATIONS:  114
        NUMBER OF RHS:        1
        NUMBER OF FLOPS:      5.005e+05
        SOLVER ELAPSED TIME:  1ms

               CONVERGENCE CHECKS FOR EQUILIBRIUM ITERATION     1


 AVERAGE FORCE                      3.463E-03   TIME AVG. FORCE       1.140E-03
 LARGEST SCALED RESIDUAL FORCE      8.094E-09   AT NODE         26   DOF  3
   INSTANCE: PART-1-1                                                                        
  CORRESPONDING RESIDUAL FORCE      8.094E-09
 LARGEST INCREMENT OF DISP.         1.000E-03   AT NODE          1   DOF  1
   INSTANCE: PART-1-1                                                                        
 LARGEST CORRECTION TO DISP.        8.600E-07   AT NODE         15   DOF  2
   INSTANCE: PART-1-1                                                                        
          THE FORCE     EQUILIBRIUM EQUATIONS HAVE CONVERGED

 AVERAGE HEAT FLUX                  1.290E+10   TIME AVG. HEAT FLUX   3.742E+10
 LARGEST RESIDUAL HEAT FLUX         1.618E+08   AT NODE          9   DOF 11
   INSTANCE: PART-1-1                                                                        
 LARGEST INCREMENT OF TEMP.         2.632E+11   AT NODE          5   DOF 11
   INSTANCE: PART-1-1                                                                        
 LARGEST CORRECTION TO TEMP.        8.898E+08   AT NODE          2   DOF 11
   INSTANCE: PART-1-1                                                                        
          THE HEAT FLUX EQUILIBRIUM EQUATIONS HAVE CONVERGED

 MAXIMUM NON-PRESCRIBED INCREMENT IN TEMPERATURE IS   1.202E+11

 ITERATION SUMMARY FOR THE INCREMENT:   1 TOTAL ITERATIONS, OF WHICH
   0 ARE SEVERE DISCONTINUITY ITERATIONS AND  1 ARE EQUILIBRIUM ITERATIONS.

 TIME INCREMENT COMPLETED  1.000E-02,  FRACTION OF STEP COMPLETED  0.118    
 STEP TIME COMPLETED       0.118    ,  TOTAL TIME COMPLETED        0.118    


  INCREMENT    21 STARTS. ATTEMPT NUMBER  1, TIME INCREMENT  1.000E-02
 
	UNSYMMETRIC NEW DIRECT SPARSE SOLVER RUNNING ON
 	1 HOST x 1 MPI RANK PER HOST x 1 THREAD PER RANK
        NUMBER OF EQUATIONS:  114
        NUMBER OF RHS:        1
        NUMBER OF FLOPS:      5.005e+05
        SOLVER ELAPSED TIME:  1ms

               CONVERGENCE CHECKS FOR EQUILIBRIUM ITERATION     1


 AVERAGE FORCE                      3.754E-03   TIME AVG. FORCE       1.264E-03
 LARGEST SCALED RESIDUAL FORCE      7.917E-09   AT NODE         26   DOF  3
   INSTANCE: PART-1-1                                                                        
  CORRESPONDING RESIDUAL FORCE      7.917E-09
 LARGEST INCREMENT OF DISP.         1.000E-03   AT NODE          1   DOF  1
   INSTANCE: PART-1-1                                                                        
 LARGEST CORRECTION TO DISP.        8.503E-07   AT NODE         15   DOF  2
   INSTANCE: PART-1-1                                                                        
          THE FORCE     EQUILIBRIUM EQUATIONS HAVE CONVERGED

 AVERAGE HEAT FLUX                  1.236E+10   TIME AVG. HEAT FLUX   3.623E+10
 LARGEST RESIDUAL HEAT FLUX         1.066E+08   AT NODE          9   DOF 11
   INSTANCE: PART-1-1                                                                        
 LARGEST INCREMENT OF TEMP.         2.632E+11   AT NODE          5   DOF 11
   INSTANCE: PART-1-1                                                                        
 LARGEST CORRECTION TO TEMP.        6.149E+08   AT NODE          2   DOF 11
   INSTANCE: PART-1-1                                                                        
          THE HEAT FLUX EQUILIBRIUM EQUATIONS HAVE CONVERGED

 MAXIMUM NON-PRESCRIBED INCREMENT IN TEMPERATURE IS   1.198E+11

 ITERATION SUMMARY FOR THE INCREMENT:   1 TOTAL ITERATIONS, OF WHICH
   0 ARE SEVERE DISCONTINUITY ITERATIONS AND  1 ARE EQUILIBRIUM ITERATIONS.

 TIME INCREMENT COMPLETED  1.000E-02,  FRACTION OF STEP COMPLETED  0.128    
 STEP TIME COMPLETED       0.128    ,  TOTAL TIME COMPLETED        0.128    


  INCREMENT    22 STARTS. ATTEMPT NUMBER  1, TIME INCREMENT  1.000E-02
 
	UNSYMMETRIC NEW DIRECT SPARSE SOLVER RUNNING ON
 	1 HOST x 1 MPI RANK PER HOST x 1 THREAD PER RANK
        NUMBER OF EQUATIONS:  114
        NUMBER OF RHS:        1
        NUMBER OF FLOPS:      5.005e+05
        SOLVER ELAPSED TIME:  1ms

               CONVERGENCE CHECKS FOR EQUILIBRIUM ITERATION     1


 AVERAGE FORCE                      4.055E-03   TIME AVG. FORCE       1.391E-03
 LARGEST SCALED RESIDUAL FORCE      7.853E-09   AT NODE         26   DOF  3
   INSTANCE: PART-1-1                                                                        
  CORRESPONDING RESIDUAL FORCE      7.853E-09
 LARGEST INCREMENT OF DISP.         1.000E-03   AT NODE          1   DOF  1
   INSTANCE: PART-1-1                                                                        
 LARGEST CORRECTION TO DISP.        8.463E-07   AT NODE         15   DOF  2
   INSTANCE: PART-1-1                                                                        
          THE FORCE     EQUILIBRIUM EQUATIONS HAVE CONVERGED

 AVERAGE HEAT FLUX                  1.190E+10   TIME AVG. HEAT FLUX   3.512E+10
 LARGEST RESIDUAL HEAT FLUX         7.512E+07   AT NODE          9   DOF 11
   INSTANCE: PART-1-1                                                                        
 LARGEST INCREMENT OF TEMP.         2.632E+11   AT NODE          5   DOF 11
   INSTANCE: PART-1-1                                                                        
 LARGEST CORRECTION TO TEMP.        4.967E+08   AT NODE          3   DOF 11
   INSTANCE: PART-1-1                                                                        
          THE HEAT FLUX EQUILIBRIUM EQUATIONS HAVE CONVERGED

 MAXIMUM NON-PRESCRIBED INCREMENT IN TEMPERATURE IS   1.195E+11

[...]
   INSTANCE: PART-1-1                                                                        
  CORRESPONDING RESIDUAL FORCE      7.502E-11
 LARGEST INCREMENT OF DISP.         1.000E-03   AT NODE          1   DOF  1
   INSTANCE: PART-1-1                                                                        
 LARGEST CORRECTION TO DISP.       -2.714E-09   AT NODE          3   DOF  2
   INSTANCE: PART-1-1                                                                        
          THE FORCE     EQUILIBRIUM EQUATIONS HAVE CONVERGED

 AVERAGE HEAT FLUX                  6.330E+09   TIME AVG. HEAT FLUX   1.341E+10
 LARGEST RESIDUAL HEAT FLUX         7.549E+05   AT NODE          9   DOF 11
   INSTANCE: PART-1-1                                                                        
 LARGEST INCREMENT OF TEMP.         2.632E+11   AT NODE          5   DOF 11
   INSTANCE: PART-1-1                                                                        
 LARGEST CORRECTION TO TEMP.       -1.188E+08   AT NODE          9   DOF 11
   INSTANCE: PART-1-1                                                                        
          THE HEAT FLUX EQUILIBRIUM EQUATIONS HAVE CONVERGED

 MAXIMUM NON-PRESCRIBED INCREMENT IN TEMPERATURE IS   1.168E+11

 ITERATION SUMMARY FOR THE INCREMENT:   2 TOTAL ITERATIONS, OF WHICH
   0 ARE SEVERE DISCONTINUITY ITERATIONS AND  2 ARE EQUILIBRIUM ITERATIONS.

 TIME INCREMENT COMPLETED  1.000E-02,  FRACTION OF STEP COMPLETED  0.959    
 STEP TIME COMPLETED       0.959    ,  TOTAL TIME COMPLETED        0.959    


  INCREMENT   105 STARTS. ATTEMPT NUMBER  1, TIME INCREMENT  1.000E-02
 
	UNSYMMETRIC NEW DIRECT SPARSE SOLVER RUNNING ON
 	1 HOST x 1 MPI RANK PER HOST x 1 THREAD PER RANK
        NUMBER OF EQUATIONS:  114
        NUMBER OF RHS:        1
        NUMBER OF FLOPS:      5.005e+05
        SOLVER ELAPSED TIME:  1ms

               CONVERGENCE CHECKS FOR EQUILIBRIUM ITERATION     1


 AVERAGE FORCE                      2.754E-02   TIME AVG. FORCE       1.301E-02
 LARGEST SCALED RESIDUAL FORCE     -1.244E-08   AT NODE         33   DOF  3
   INSTANCE: PART-1-1                                                                        
  CORRESPONDING RESIDUAL FORCE     -1.244E-08
 LARGEST INCREMENT OF DISP.         1.000E-03   AT NODE          1   DOF  1
   INSTANCE: PART-1-1                                                                        
 LARGEST CORRECTION TO DISP.        5.320E-07   AT NODE          1   DOF  2
   INSTANCE: PART-1-1                                                                        
          THE FORCE     EQUILIBRIUM EQUATIONS HAVE CONVERGED

 AVERAGE HEAT FLUX                  6.310E+09   TIME AVG. HEAT FLUX   1.334E+10
 LARGEST RESIDUAL HEAT FLUX        -3.107E+08   AT NODE          9   DOF 11
   INSTANCE: PART-1-1                                                                        
 LARGEST INCREMENT OF TEMP.         2.632E+11   AT NODE          5   DOF 11
   INSTANCE: PART-1-1                                                                        
 LARGEST CORRECTION TO TEMP.        1.087E+08   AT NODE          9   DOF 11
   INSTANCE: PART-1-1                                                                        
          HEAT FLUX EQUILIBRIUM NOT ACHIEVED WITHIN TOLERANCE.
 
	UNSYMMETRIC NEW DIRECT SPARSE SOLVER RUNNING ON
 	1 HOST x 1 MPI RANK PER HOST x 1 THREAD PER RANK
        NUMBER OF EQUATIONS:  114
        NUMBER OF RHS:        1
        NUMBER OF FLOPS:      5.005e+05
        SOLVER ELAPSED TIME:  1ms

               CONVERGENCE CHECKS FOR EQUILIBRIUM ITERATION     2


 AVERAGE FORCE                      2.754E-02   TIME AVG. FORCE       1.301E-02
 LARGEST SCALED RESIDUAL FORCE      7.726E-11   AT NODE         33   DOF  3
   INSTANCE: PART-1-1                                                                        
  CORRESPONDING RESIDUAL FORCE      7.726E-11
 LARGEST INCREMENT OF DISP.         1.000E-03   AT NODE          1   DOF  1
   INSTANCE: PART-1-1                                                                        
 LARGEST CORRECTION TO DISP.       -2.734E-09   AT NODE          3   DOF  2
   INSTANCE: PART-1-1                                                                        
          THE FORCE     EQUILIBRIUM EQUATIONS HAVE CONVERGED

 AVERAGE HEAT FLUX                  6.319E+09   TIME AVG. HEAT FLUX   1.334E+10
 LARGEST RESIDUAL HEAT FLUX         7.636E+05   AT NODE          9   DOF 11
   INSTANCE: PART-1-1                                                                        
 LARGEST INCREMENT OF TEMP.         2.632E+11   AT NODE          5   DOF 11
   INSTANCE: PART-1-1                                                                        
 LARGEST CORRECTION TO TEMP.       -1.197E+08   AT NODE          9   DOF 11
   INSTANCE: PART-1-1                                                                        
          THE HEAT FLUX EQUILIBRIUM EQUATIONS HAVE CONVERGED

 MAXIMUM NON-PRESCRIBED INCREMENT IN TEMPERATURE IS   1.168E+11

 ITERATION SUMMARY FOR THE INCREMENT:   2 TOTAL ITERATIONS, OF WHICH
   0 ARE SEVERE DISCONTINUITY ITERATIONS AND  2 ARE EQUILIBRIUM ITERATIONS.

 TIME INCREMENT COMPLETED  1.000E-02,  FRACTION OF STEP COMPLETED  0.969    
 STEP TIME COMPLETED       0.969    ,  TOTAL TIME COMPLETED        0.969    


  INCREMENT   106 STARTS. ATTEMPT NUMBER  1, TIME INCREMENT  1.000E-02
 
	UNSYMMETRIC NEW DIRECT SPARSE SOLVER RUNNING ON
 	1 HOST x 1 MPI RANK PER HOST x 1 THREAD PER RANK
        NUMBER OF EQUATIONS:  114
        NUMBER OF RHS:        1
        NUMBER OF FLOPS:      5.005e+05
        SOLVER ELAPSED TIME:  1ms

               CONVERGENCE CHECKS FOR EQUILIBRIUM ITERATION     1


 AVERAGE FORCE                      2.781E-02   TIME AVG. FORCE       1.315E-02
 LARGEST SCALED RESIDUAL FORCE     -1.261E-08   AT NODE         33   DOF  3
   INSTANCE: PART-1-1                                                                        
  CORRESPONDING RESIDUAL FORCE     -1.261E-08
 LARGEST INCREMENT OF DISP.         1.000E-03   AT NODE          1   DOF  1
   INSTANCE: PART-1-1                                                                        
 LARGEST CORRECTION TO DISP.        5.293E-07   AT NODE          1   DOF  2
   INSTANCE: PART-1-1                                                                        
          THE FORCE     EQUILIBRIUM EQUATIONS HAVE CONVERGED

 AVERAGE HEAT FLUX                  6.299E+09   TIME AVG. HEAT FLUX   1.328E+10
 LARGEST RESIDUAL HEAT FLUX        -3.132E+08   AT NODE          9   DOF 11
   INSTANCE: PART-1-1                                                                        
 LARGEST INCREMENT OF TEMP.         2.632E+11   AT NODE          5   DOF 11
   INSTANCE: PART-1-1                                                                        
 LARGEST CORRECTION TO TEMP.        1.097E+08   AT NODE          9   DOF 11
   INSTANCE: PART-1-1                                                                        
          HEAT FLUX EQUILIBRIUM NOT ACHIEVED WITHIN TOLERANCE.
 
	UNSYMMETRIC NEW DIRECT SPARSE SOLVER RUNNING ON
 	1 HOST x 1 MPI RANK PER HOST x 1 THREAD PER RANK
        NUMBER OF EQUATIONS:  114
        NUMBER OF RHS:        1
        NUMBER OF FLOPS:      5.005e+05
        SOLVER ELAPSED TIME:  1ms

               CONVERGENCE CHECKS FOR EQUILIBRIUM ITERATION     2


 AVERAGE FORCE                      2.781E-02   TIME AVG. FORCE       1.315E-02
 LARGEST SCALED RESIDUAL FORCE      7.955E-11   AT NODE         33   DOF  3
   INSTANCE: PART-1-1                                                                        
  CORRESPONDING RESIDUAL FORCE      7.955E-11
 LARGEST INCREMENT OF DISP.         1.000E-03   AT NODE          1   DOF  1
   INSTANCE: PART-1-1                                                                        
 LARGEST CORRECTION TO DISP.       -2.753E-09   AT NODE          3   DOF  2
   INSTANCE: PART-1-1                                                                        
          THE FORCE     EQUILIBRIUM EQUATIONS HAVE CONVERGED

 AVERAGE HEAT FLUX                  6.308E+09   TIME AVG. HEAT FLUX   1.328E+10
 LARGEST RESIDUAL HEAT FLUX         7.724E+05   AT NODE          9   DOF 11
   INSTANCE: PART-1-1                                                                        
 LARGEST INCREMENT OF TEMP.         2.632E+11   AT NODE          5   DOF 11
   INSTANCE: PART-1-1                                                                        
 LARGEST CORRECTION TO TEMP.       -1.206E+08   AT NODE          9   DOF 11
   INSTANCE: PART-1-1                                                                        
          THE HEAT FLUX EQUILIBRIUM EQUATIONS HAVE CONVERGED

 MAXIMUM NON-PRESCRIBED INCREMENT IN TEMPERATURE IS   1.167E+11

 ITERATION SUMMARY FOR THE INCREMENT:   2 TOTAL ITERATIONS, OF WHICH
   0 ARE SEVERE DISCONTINUITY ITERATIONS AND  2 ARE EQUILIBRIUM ITERATIONS.

 TIME INCREMENT COMPLETED  1.000E-02,  FRACTION OF STEP COMPLETED  0.979    
 STEP TIME COMPLETED       0.979    ,  TOTAL TIME COMPLETED        0.979    


  INCREMENT   107 STARTS. ATTEMPT NUMBER  1, TIME INCREMENT  1.000E-02
 
	UNSYMMETRIC NEW DIRECT SPARSE SOLVER RUNNING ON
 	1 HOST x 1 MPI RANK PER HOST x 1 THREAD PER RANK
        NUMBER OF EQUATIONS:  114
        NUMBER OF RHS:        1
        NUMBER OF FLOPS:      5.005e+05
        SOLVER ELAPSED TIME:  1ms

               CONVERGENCE CHECKS FOR EQUILIBRIUM ITERATION     1


 AVERAGE FORCE                      2.809E-02   TIME AVG. FORCE       1.329E-02
 LARGEST SCALED RESIDUAL FORCE     -1.278E-08   AT NODE         33   DOF  3
   INSTANCE: PART-1-1                                                                        
  CORRESPONDING RESIDUAL FORCE     -1.278E-08
 LARGEST INCREMENT OF DISP.         1.000E-03   AT NODE          1   DOF  1
   INSTANCE: PART-1-1                                                                        
 LARGEST CORRECTION TO DISP.        5.267E-07   AT NODE          1   DOF  2
   INSTANCE: PART-1-1                                                                        
          THE FORCE     EQUILIBRIUM EQUATIONS HAVE CONVERGED

 AVERAGE HEAT FLUX                  6.289E+09   TIME AVG. HEAT FLUX   1.321E+10
 LARGEST RESIDUAL HEAT FLUX        -3.157E+08   AT NODE          9   DOF 11
   INSTANCE: PART-1-1                                                                        
 LARGEST INCREMENT OF TEMP.         2.632E+11   AT NODE          5   DOF 11
   INSTANCE: PART-1-1                                                                        
 LARGEST CORRECTION TO TEMP.        1.108E+08   AT NODE          9   DOF 11
   INSTANCE: PART-1-1                                                                        
          HEAT FLUX EQUILIBRIUM NOT ACHIEVED WITHIN TOLERANCE.
 
	UNSYMMETRIC NEW DIRECT SPARSE SOLVER RUNNING ON
 	1 HOST x 1 MPI RANK PER HOST x 1 THREAD PER RANK
        NUMBER OF EQUATIONS:  114
        NUMBER OF RHS:        1
        NUMBER OF FLOPS:      5.005e+05
        SOLVER ELAPSED TIME:  1ms

               CONVERGENCE CHECKS FOR EQUILIBRIUM ITERATION     2


 AVERAGE FORCE                      2.809E-02   TIME AVG. FORCE       1.329E-02
 LARGEST SCALED RESIDUAL FORCE      8.189E-11   AT NODE         33   DOF  3
   INSTANCE: PART-1-1                                                                        
  CORRESPONDING RESIDUAL FORCE      8.189E-11
 LARGEST INCREMENT OF DISP.         1.000E-03   AT NODE          1   DOF  1
   INSTANCE: PART-1-1                                                                        
 LARGEST CORRECTION TO DISP.       -2.772E-09   AT NODE          3   DOF  2
   INSTANCE: PART-1-1                                                                        
          THE FORCE     EQUILIBRIUM EQUATIONS HAVE CONVERGED

 AVERAGE HEAT FLUX                  6.298E+09   TIME AVG. HEAT FLUX   1.321E+10
 LARGEST RESIDUAL HEAT FLUX         7.811E+05   AT NODE          9   DOF 11
   INSTANCE: PART-1-1                                                                        
 LARGEST INCREMENT OF TEMP.         2.632E+11   AT NODE          5   DOF 11
   INSTANCE: PART-1-1                                                                        
 LARGEST CORRECTION TO TEMP.       -1.215E+08   AT NODE          9   DOF 11
   INSTANCE: PART-1-1                                                                        
          THE HEAT FLUX EQUILIBRIUM EQUATIONS HAVE CONVERGED

 MAXIMUM NON-PRESCRIBED INCREMENT IN TEMPERATURE IS   1.167E+11

 ITERATION SUMMARY FOR THE INCREMENT:   2 TOTAL ITERATIONS, OF WHICH
   0 ARE SEVERE DISCONTINUITY ITERATIONS AND  2 ARE EQUILIBRIUM ITERATIONS.

 TIME INCREMENT COMPLETED  1.000E-02,  FRACTION OF STEP COMPLETED  0.989    
 STEP TIME COMPLETED       0.989    ,  TOTAL TIME COMPLETED        0.989    


  INCREMENT   108 STARTS. ATTEMPT NUMBER  1, TIME INCREMENT  1.000E-02
 
	UNSYMMETRIC NEW DIRECT SPARSE SOLVER RUNNING ON
 	1 HOST x 1 MPI RANK PER HOST x 1 THREAD PER RANK
        NUMBER OF EQUATIONS:  114
        NUMBER OF RHS:        1
        NUMBER OF FLOPS:      5.005e+05
        SOLVER ELAPSED TIME:  1ms

               CONVERGENCE CHECKS FOR EQUILIBRIUM ITERATION     1


 AVERAGE FORCE                      2.837E-02   TIME AVG. FORCE       1.343E-02
 LARGEST SCALED RESIDUAL FORCE     -1.295E-08   AT NODE         33   DOF  3
   INSTANCE: PART-1-1                                                                        
  CORRESPONDING RESIDUAL FORCE     -1.295E-08
 LARGEST INCREMENT OF DISP.         1.000E-03   AT NODE          1   DOF  1
   INSTANCE: PART-1-1                                                                        
 LARGEST CORRECTION TO DISP.        5.241E-07   AT NODE          1   DOF  2
   INSTANCE: PART-1-1                                                                        
          THE FORCE     EQUILIBRIUM EQUATIONS HAVE CONVERGED

 AVERAGE HEAT FLUX                  6.279E+09   TIME AVG. HEAT FLUX   1.315E+10
 LARGEST RESIDUAL HEAT FLUX        -3.181E+08   AT NODE          9   DOF 11
   INSTANCE: PART-1-1                                                                        
 LARGEST INCREMENT OF TEMP.         2.632E+11   AT NODE          5   DOF 11
   INSTANCE: PART-1-1                                                                        
 LARGEST CORRECTION TO TEMP.        1.119E+08   AT NODE          9   DOF 11
   INSTANCE: PART-1-1                                                                        
          HEAT FLUX EQUILIBRIUM NOT ACHIEVED WITHIN TOLERANCE.
 
	UNSYMMETRIC NEW DIRECT SPARSE SOLVER RUNNING ON
 	1 HOST x 1 MPI RANK PER HOST x 1 THREAD PER RANK
        NUMBER OF EQUATIONS:  114
        NUMBER OF RHS:        1
        NUMBER OF FLOPS:      5.005e+05
        SOLVER ELAPSED TIME:  1ms

               CONVERGENCE CHECKS FOR EQUILIBRIUM ITERATION     2


 AVERAGE FORCE                      2.837E-02   TIME AVG. FORCE       1.343E-02
 LARGEST SCALED RESIDUAL FORCE      8.429E-11   AT NODE         33   DOF  3
   INSTANCE: PART-1-1                                                                        
  CORRESPONDING RESIDUAL FORCE      8.429E-11
 LARGEST INCREMENT OF DISP.         1.000E-03   AT NODE          1   DOF  1
   INSTANCE: PART-1-1                                                                        
 LARGEST CORRECTION TO DISP.       -2.792E-09   AT NODE          3   DOF  2
   INSTANCE: PART-1-1                                                                        
          THE FORCE     EQUILIBRIUM EQUATIONS HAVE CONVERGED

 AVERAGE HEAT FLUX                  6.288E+09   TIME AVG. HEAT FLUX   1.315E+10
 LARGEST RESIDUAL HEAT FLUX         7.898E+05   AT NODE          9   DOF 11
   INSTANCE: PART-1-1                                                                        
 LARGEST INCREMENT OF TEMP.         2.632E+11   AT NODE          5   DOF 11
   INSTANCE: PART-1-1                                                                        
 LARGEST CORRECTION TO TEMP.       -1.224E+08   AT NODE          9   DOF 11
   INSTANCE: PART-1-1                                                                        
          THE HEAT FLUX EQUILIBRIUM EQUATIONS HAVE CONVERGED

 MAXIMUM NON-PRESCRIBED INCREMENT IN TEMPERATURE IS   1.167E+11

 ITERATION SUMMARY FOR THE INCREMENT:   2 TOTAL ITERATIONS, OF WHICH
   0 ARE SEVERE DISCONTINUITY ITERATIONS AND  2 ARE EQUILIBRIUM ITERATIONS.

 TIME INCREMENT COMPLETED  1.000E-02,  FRACTION OF STEP COMPLETED  0.999    
 STEP TIME COMPLETED       0.999    ,  TOTAL TIME COMPLETED        0.999    


  INCREMENT   109 STARTS. ATTEMPT NUMBER  1, TIME INCREMENT  1.500E-03
 
	UNSYMMETRIC NEW DIRECT SPARSE SOLVER RUNNING ON
 	1 HOST x 1 MPI RANK PER HOST x 1 THREAD PER RANK
        NUMBER OF EQUATIONS:  114
        NUMBER OF RHS:        1
        NUMBER OF FLOPS:      5.005e+05
        SOLVER ELAPSED TIME:  1ms

               CONVERGENCE CHECKS FOR EQUILIBRIUM ITERATION     1


 AVERAGE FORCE                      2.841E-02   TIME AVG. FORCE       1.357E-02
 LARGEST SCALED RESIDUAL FORCE     -9.377E-10   AT NODE         33   DOF  3
   INSTANCE: PART-1-1                                                                        
  CORRESPONDING RESIDUAL FORCE     -9.377E-10
 LARGEST INCREMENT OF DISP.         1.500E-04   AT NODE          1   DOF  1
   INSTANCE: PART-1-1                                                                        
 LARGEST CORRECTION TO DISP.        5.254E-08   AT NODE          4   DOF  2
   INSTANCE: PART-1-1                                                                        
          THE FORCE     EQUILIBRIUM EQUATIONS HAVE CONVERGED

 AVERAGE HEAT FLUX                  6.287E+09   TIME AVG. HEAT FLUX   1.308E+10
 LARGEST RESIDUAL HEAT FLUX        -4.760E+07   AT NODE          9   DOF 11
   INSTANCE: PART-1-1                                                                        
 LARGEST INCREMENT OF TEMP.         3.949E+10   AT NODE          5   DOF 11
   INSTANCE: PART-1-1                                                                        
 LARGEST CORRECTION TO TEMP.        1.194E+07   AT NODE          9   DOF 11
   INSTANCE: PART-1-1                                                                        
          THE HEAT FLUX EQUILIBRIUM EQUATIONS HAVE CONVERGED

 MAXIMUM NON-PRESCRIBED INCREMENT IN TEMPERATURE IS   1.752E+10

 ITERATION SUMMARY FOR THE INCREMENT:   1 TOTAL ITERATIONS, OF WHICH
   0 ARE SEVERE DISCONTINUITY ITERATIONS AND  1 ARE EQUILIBRIUM ITERATIONS.

 TIME INCREMENT COMPLETED  1.500E-03,  FRACTION OF STEP COMPLETED   1.00    
 STEP TIME COMPLETED        1.00    ,  TOTAL TIME COMPLETED         1.00    


          THE ANALYSIS HAS BEEN COMPLETED



     ANALYSIS SUMMARY:
     TOTAL OF        109  INCREMENTS
                       0  CUTBACKS IN AUTOMATIC INCREMENTATION
                     194  ITERATIONS INCLUDING CONTACT ITERATIONS IF PRESENT
                     194  PASSES THROUGH THE EQUATION SOLVER OF WHICH 
                     194  INVOLVE MATRIX DECOMPOSITION, INCLUDING
                       0  DECOMPOSITION(S) OF THE MASS MATRIX
                       1  REORDERING OF EQUATIONS TO MINIMIZE WAVEFRONT
                       0  ADDITIONAL RESIDUAL EVALUATIONS FOR LINE SEARCHES
                       0  ADDITIONAL OPERATOR EVALUATIONS FOR LINE SEARCHES
                       2  WARNING MESSAGES DURING USER INPUT PROCESSING
                       0  WARNING MESSAGES DURING ANALYSIS
                       0  ANALYSIS WARNINGS ARE NUMERICAL PROBLEM MESSAGES
                       0  ANALYSIS WARNINGS ARE NEGATIVE EIGENVALUE MESSAGES
                       0  ERROR MESSAGES



     JOB TIME SUMMARY
       USER TIME (SEC)      =      4.3    
       SYSTEM TIME (SEC)    =     0.93    
       TOTAL CPU TIME (SEC) =      5.3    
       WALLCLOCK TIME (SEC) =            6
       MEMORY PEAK (GB)     =            2
