*Heading
 OneFifthMesh-periodic 
** Job name: test Model name: Model-1
** Generated by: Abaqus/CAE 2024
*Preprint, echo=NO, model=NO, history=NO, contact=NO
**
** PARTS
**
*Part, name=Part-1
*Node
      1,           1.,           1., 0.00999999978
      2,           1.,           0., 0.00999999978
      3,           1.,           0.,           0.
      4,           1.,           1.,           0.
      5,           0.,           0., 0.00999999978
      6,           0.,           0.,           0.
      7,           0.,           1.,           0.
      8,           0.,           1., 0.00999999978
      9,           1.,  0.949999988, 0.00999999978
     10,           1.,  0.899999976, 0.00999999978
     11,           1.,  0.850000024, 0.00999999978
     12,           1.,  0.800000012, 0.00999999978
     13,           1.,         0.75, 0.00999999978
     14,           1.,  0.699999988, 0.00999999978
     15,           1.,  0.649999976, 0.00999999978
     16,           1.,  0.600000024, 0.00999999978
     17,           1.,  0.550000012, 0.00999999978
     18,           1.,          0.5, 0.00999999978
     19,           1.,  0.449999988, 0.00999999978
     20,           1.,  0.400000006, 0.00999999978
** ... 5023 like lines cut
*Element, type=C3D10T
   1,   27,    2,  882,  161,  885,  884,  883,  887,  886,  888
   2,  199,  879,   25,   30,  891,  890,  889,  893,  892,  894
   3,  861,  199,  880,  180,  897,  896,  895,  899,  898,  900
   4,  879,  880,  860,  219,  903,  902,  901,  905,  904,  906
   5,  219,  218,  879,  199,  908,  907,  905,  910,  909,  891
   6,  879,  218,  878,   24,  907,  912,  911,  914,  913,  915
   7,  878,  218,  879,  859,  912,  907,  911,  917,  916,  918
   8,  257,  878,  858,  238,  921,  920,  919,  923,  922,  924
   9,  878,  859,  858,  238,  917,  925,  920,  922,  926,  924
  10,  218,  238,  859,  878,  927,  926,  916,  912,  922,  917
  11,  878,  877,   23,  256,  930,  929,  928,  932,  931,  933
  12,  275,   33,   22,  256,  936,  935,  934,  938,  937,  939
  13,  275,  876,  875,  856,  942,  941,  940,  944,  943,  945
  14,  877,  276,  256,  858,  947,  946,  931,  949,  948,  950
  15,  275,  276,  256,  877,  951,  946,  938,  952,  947,  931
  16,   21,  275,  876,  875,  954,  942,  953,  955,  940,  941
  17,  294,  874,   20,   35,  958,  957,  956,  960,  959,  961
  18,  874,  294,  875,  855,  958,  963,  962,  965,  964,  966
  19,  855,  294,  314,  313,  964,  968,  967,  970,  969,  971
  20,  332,  313,   36,   19,  974,  973,  972,  976,  975,  977
** ... 2380 like lines cut
*Nset, nset=Set-1, generate
    1,  5043,     1
*Elset, elset=Set-1, generate
    1,  2400,     1
*Nset, nset=MAT1_GRN1, generate
    1,  5043,     1
*Elset, elset=MAT1_GRN1, generate
    1,  2400,     1
** Section: Section-1
*Solid Section, elset=MAT1_GRN1, material=MAT1_GRN1
,
*End Part 
**
** ASSEMBLY 
** 
*Assembly, name=Assembly 
**   
*Instance, name=Part-1-1, part=Part-1 
*End Instance 
**
*Nset, nset=Set-102, instance=Part-1-1, generate
    1,  5043,     1
*Elset, elset=Set-102, instance=Part-1-1, generate
    1,  2400,     1 
*Nset, nset=Set-1, instance=Part-1-1
    5,    6,    7,    8,   85,   86,   87,   88,   89,   90,   91,   92,   93,   94,   95,   96
   97,   98,   99,  100,  101,  102,  103,  142,  143,  144,  145,  146,  147,  148,  149,  150
  151,  152,  153,  154,  155,  156,  157,  158,  159,  160, 1961, 2192, 2193, 2194, 4073, 4206
 4207, 4208, 4211, 4212, 4213, 4219, 4230, 4231, 4240, 4245, 4246, 4247, 4260, 4261, 4277, 4280
 4286, 4287, 4288, 4299, 4300, 4302, 4303, 4304, 4314, 4316, 4317, 4318, 4319, 4320, 4323, 4324
 4330, 4332, 4334, 4345, 4362, 4367, 4370, 4371, 4379, 4380, 4381, 4385, 4405, 4410, 4411, 4412
 4413, 4414, 4415, 4431, 4439, 4440, 4443, 4449, 4450, 4559, 4603, 4606, 4651, 4685, 4686, 4689
 4690, 4717, 4719, 4788, 4877, 4905, 5006, 5010, 5039, 5040, 5042
*Elset, elset=Set-1, instance=Part-1-1
  445, 1226, 1227, 1235, 1241, 1242, 1249, 1260, 1266, 1268, 1272, 1273, 1274, 1282, 1285, 1311
 1316, 1317, 1333, 1334, 1341, 1344, 1347, 1419, 1503, 1507, 1613, 1662, 1667, 1703, 1720, 1724
 1961, 2032, 2090, 2212, 2260, 2328, 2385, 2393
*Nset, nset=Set-2, instance=Part-1-1
    1,    2,    3,    4,    9,   10,   11,   12,   13,   14,   15,   16,   17,   18,   19,   20
   21,   22,   23,   24,   25,   26,   27,   28,   29,   30,   31,   32,   33,   34,   35,   36
   37,   38,   39,   40,   41,   42,   43,   44,   45,   46,  885,  894,  935,  961,  977,  985
 4583, 4602, 4614, 4615, 4616, 4628, 4629, 4631, 4632, 4640, 4663, 4666, 4667, 4668, 4671, 4674
 4682, 4683, 4684, 4698, 4699, 4701, 4706, 4707, 4708, 4713, 4715, 4716, 4744, 4745, 4753, 4761
 4765, 4772, 4775, 4776, 4777, 4781, 4784, 4787, 4789, 4794, 4804, 4805, 4808, 4809, 4811, 4812
 4814, 4817, 4819, 4820, 4822, 4824, 4825, 4834, 4835, 4840, 4841, 4852, 4853, 4859, 4862, 4863
 4869, 4870, 4873, 4875, 4876, 4903, 4932, 5014, 5021, 5022, 5043
*Elset, elset=Set-2, instance=Part-1-1
 1531, 1565, 1568, 1642, 1661, 1695, 1698, 1710, 1718, 1770, 1786, 1815, 1853, 1858, 1864, 1889
 1893, 1900, 1910, 1915, 1942, 1946, 1951, 1955, 1958, 1986, 1993, 2006, 2018, 2020, 2022, 2026
 2031, 2083, 2144, 2206, 2310, 2396, 2397, 2398
*End Assembly
** 
*Amplitude, name=Amp-1 
             0.,              0.,              1.,            0.05   
** 
** MATERIALS
**  
*Material, name=MAT1_GRN1 
*Density
1., 
*Depvar 
     76, 
*User Material, constants=8, type=MECHANICAL 
768.,1., 595., 0.059, 217.72, 121.79, 93.733, 0.3
*User Material, constants=8, type=THERMAL
0.01271, 4, 20.2e6, 0., 58.6e6, 8.464e13, 11.5e6, 8.464e17
***********************************************   
** PREDEFINED FIELDS
** 
** Name: Predefined Field-1   Type: Temperature
*Initial Conditions, type=TEMPERATURE
Set-102, 2.659e11
**
** ----------------------------------------------------------------
** STEP: Step-1
**  
*Step, name=Step-1, nlgeom=YES, inc=1000000, unsymm=YES, amplitude=RAMP
*Coupled Temperature-displacement, creep=none, deltmx=1e13
0.0001, 1., 1e-25, 0.01
**Controls, parameters=TIME INCREMENTATION
**2,10,1E-10,0.01
** 
** 
** BOUNDARY CONDITIONS
** 
** Name: BC-1 Type: Symmetry/Antisymmetry/Encastre
*Boundary
Set-1, ENCASTRE
** Name: BC-2 Type: Displacement/Rotation
*Boundary
Set-2, 1, 1, 0.1
** Name: Set-1 Type: Temperature
*Boundary, amplitude=Amp-1
Set-1, 11, 11, 2.659e13
** 
**
** 
** OUTPUT REQUESTS 
**  
*Restart, write, frequency=0 
**  
** FIELD OUTPUT: F-Output-1 
**  
*Output, field, frequency=2 
*Node Output 
NT, RF, RFL, U 
**  
** FIELD OUTPUT: F-Output-2 
**  
*Element Output, directions=YES 
E, HFL, LE, S, SDV, TEMP, S
*Output, history, frequency=0 
*End Step 
