1

   Abaqus 2024                                  Date 27-May-2025   Time 16:20:41
   For use by UNIVERSITY OF WYOMING under license from Dassault Systemes or its subsidiary.

 OneFifthMesh-periodic                                                           
                                                                                 
 STEP    1     INCREMENT     1     STEP TIME    0.00    


                        S T E P       1     C O U P L E D - T E M P E R A T U R E - D I S P L A C E M E N T   A N A L Y S I S


                                                                                          

     AUTOMATIC TIME CONTROL WITH -
          A SUGGESTED INITIAL TIME INCREMENT OF                1.000E-06
          AND A TOTAL TIME PERIOD OF                            1.00    
          THE MINIMUM TIME INCREMENT ALLOWED IS                1.000E-15
          THE MAXIMUM TIME INCREMENT ALLOWED IS                1.000E-02

          CREEP AND SWELLING EFFECTS ARE OMITTED IN THIS STEP

     THE SIZE OF THE TIME INCREMENT IS CONTROLLED BY -
          THE TEMPERATURE CHANGE PER INCREMENT NOT EXCEEDING           1.000E-02
          THE RATE DEPENDENCY WILL BE CONSIDERED IN THIS STEP

          CREEP AND SWELLING EFFECTS WILL BE IGNORED.

 CONVERGENCE TOLERANCE PARAMETERS FOR FORCE    
     CRITERION FOR RESIDUAL FORCE     FOR A NONLINEAR PROBLEM          5.000E-03
     CRITERION FOR DISP.    CORRECTION IN A NONLINEAR PROBLEM          1.000E-02
     INITIAL VALUE OF TIME AVERAGE FORCE                               1.000E-02
     AVERAGE FORCE     IS TIME AVERAGE FORCE    
     ALTERNATE CRIT. FOR RESIDUAL FORCE     FOR A NONLINEAR PROBLEM    2.000E-02
     CRITERION FOR ZERO FORCE     RELATIVE TO TIME AVRG. FORCE         1.000E-05
     CRITERION FOR RESIDUAL FORCE     WHEN THERE IS ZERO FLUX          1.000E-05
     CRITERION FOR DISP.    CORRECTION WHEN THERE IS ZERO FLUX         1.000E-03
     CRITERION FOR RESIDUAL FORCE     FOR A LINEAR INCREMENT           1.000E-08
     FIELD CONVERSION RATIO                                             1.00    
     CRITERION FOR ZERO FORCE     REL. TO TIME AVRG. MAX. FORCE        1.000E-05
     CRITERION FOR ZERO DISP.    RELATIVE TO CHARACTERISTIC LENGTH     1.000E-08

 CONVERGENCE TOLERANCE PARAMETERS FOR HEAT FLUX
     CRITERION FOR RESIDUAL HEAT FLUX FOR A NONLINEAR PROBLEM          5.000E-03
     CRITERION FOR TEMP.    CORRECTION IN A NONLINEAR PROBLEM          1.000E-02
     INITIAL VALUE OF TIME AVERAGE HEAT FLUX                           1.000E-02
     AVERAGE HEAT FLUX IS TIME AVERAGE HEAT FLUX
     ALTERNATE CRIT. FOR RESIDUAL HEAT FLUX FOR A NONLINEAR PROBLEM    2.000E-02
     CRITERION FOR ZERO HEAT FLUX RELATIVE TO TIME AVRG. HEAT FLUX     1.000E-05
     CRITERION FOR RESIDUAL HEAT FLUX WHEN THERE IS ZERO FLUX          1.000E-05
     CRITERION FOR TEMP.    CORRECTION WHEN THERE IS ZERO FLUX         1.000E-03
     CRITERION FOR RESIDUAL HEAT FLUX FOR A LINEAR INCREMENT           1.000E-08
     FIELD CONVERSION RATIO                                             1.00    
     CRITERION FOR ZERO HEAT FLUX REL. TO TIME AVRG. MAX. HEAT FLUX    1.000E-05

     VOLUMETRIC STRAIN COMPATIBILITY TOLERANCE FOR HYBRID SOLIDS       1.000E-05
     AXIAL STRAIN COMPATIBILITY TOLERANCE FOR HYBRID BEAMS             1.000E-05
     TRANS. SHEAR STRAIN COMPATIBILITY TOLERANCE FOR HYBRID BEAMS      1.000E-05
     SOFT CONTACT CONSTRAINT COMPATIBILITY TOLERANCE FOR P>P0          5.000E-03
     SOFT CONTACT CONSTRAINT COMPATIBILITY TOLERANCE FOR P=0.0         0.100    
     CONTACT FORCE ERROR TOLERANCE FOR CONVERT SDI=YES                 1.00    
     DISPLACEMENT COMPATIBILITY TOLERANCE FOR DCOUP ELEMENTS           1.000E-05
     ROTATION COMPATIBILITY TOLERANCE FOR DCOUP ELEMENTS               1.000E-05

 EQUILIBRIUM WILL BE CHECKED FOR SEVERE DISCONTINUITY ITERATIONS

 TIME INCREMENTATION CONTROL PARAMETERS:
     FIRST EQUILIBRIUM ITERATION FOR CONSECUTIVE DIVERGENCE CHECK              4
     EQUILIBRIUM ITERATION AT WHICH LOG. CONVERGENCE RATE CHECK BEGINS         8
     EQUILIBRIUM ITERATION AFTER WHICH ALTERNATE RESIDUAL IS USED              9
     MAXIMUM EQUILIBRIUM ITERATIONS ALLOWED                                   16
     EQUILIBRIUM ITERATION COUNT FOR CUT-BACK IN NEXT INCREMENT               10
     MAXIMUM EQUILIB. ITERS IN TWO INCREMENTS FOR TIME INCREMENT INCREASE      4
     MAXIMUM ITERATIONS FOR SEVERE DISCONTINUITIES                            50
     MAXIMUM ATTEMPTS ALLOWED IN AN INCREMENT                                  5
     MAXIMUM DISCON. ITERS IN TWO INCREMENTS FOR TIME INCREMENT INCREASE      50
     MAXIMUM CONTACT AUGMENTATIONS FOR *SURFACE BEHAVIOR,AUGMENTED LAGRANGE   50
     CONSECUTIVE INCS MEETING TIME INTEG. TOL. FOR TIME INC. INCREASE          3
     CUT-BACK FACTOR AFTER DIVERGENCE                                 0.2500    
     CUT-BACK FACTOR FOR TOO SLOW CONVERGENCE                         0.5000    
     CUT-BACK FACTOR AFTER TOO MANY EQUILIBRIUM ITERATIONS            0.7500    
     CUT-BACK FACTOR AFTER TOO MANY SEVERE DISCONTINUITY ITERATIONS   0.2500    
     CUT-BACK FACTOR AFTER PROBLEMS IN ELEMENT ASSEMBLY               0.2500    
     INCREASE FACTOR AFTER TWO INCREMENTS THAT CONVERGE QUICKLY        1.500    
     MAX. TIME INCREMENT INCREASE FACTOR ALLOWED                       1.500    
     MAX. TIME INCREMENT INCREASE FACTOR ALLOWED (DYNAMICS)            1.250    
     MAX. TIME INCREMENT INCREASE FACTOR ALLOWED (DIFFUSION)           2.000    
     MINIMUM TIME INCREMENT RATIO FOR EXTRAPOLATION TO OCCUR          0.1000    
     CUT-BACK FACTOR WHEN TIME INTEGRATION ACCURACY TOL. EXCEEDED     0.8500    
     MAX. RATIO OF TIME INTEG. MEASURE TO TOL. FOR TIME INC. INCREASE 0.7500    
     INCREASE FACTOR FOR TIME INCREMENT WHEN POSSIBLE                 0.8000    
     MIN. TIME INC. INCREASE FACTOR IN LINEAR TRANSIENT PROBLEMS      0.9500    
     MAX. RATIO OF TIME INCREMENT TO STABILITY LIMIT                   1.000    
     FRACTION OF STABILITY LIMIT FOR NEW TIME INCREMENT               0.9500    
     TIME INCREMENT INCREASE FACTOR BEFORE A TIME POINT                1.000    
     GLOBAL STABILIZATION CONTROL IS NOT USED

          PRINT OF INCREMENT NUMBER, TIME, ETC., EVERY    1  INCREMENTS

     THE MAXIMUM NUMBER OF INCREMENTS IN THIS STEP IS                   10000

          UNSYMMETRIC MATRIX STORAGE AND SOLUTION WILL BE USED

     LINEAR EXTRAPOLATION WILL BE USED

     CHARACTERISTIC ELEMENT LENGTH      1.75    

     DETAILS REGARDING ACTUAL SOLUTION WAVEFRONT REQUESTED

     DETAILED OUTPUT OF DIAGNOSTICS TO DATABASE REQUESTED

     PRINT OF INCREMENT NUMBER, TIME, ETC., TO THE MESSAGE FILE EVERY     1  INCREMENTS

     COLLECTING MODEL CONSTRAINT INFORMATION FOR OVERCONSTRAINT CHECKS

     COLLECTING STEP CONSTRAINT INFORMATION FOR OVERCONSTRAINT CHECKS


  INCREMENT     1 STARTS. ATTEMPT NUMBER  1, TIME INCREMENT  1.000E-06
 
	UNSYMMETRIC NEW DIRECT SPARSE SOLVER RUNNING ON
 	1 HOST x 1 MPI RANK PER HOST x 1 THREAD PER RANK
        NUMBER OF EQUATIONS:  34
        NUMBER OF RHS:        1
        NUMBER OF FLOPS:      2.625e+04
        SOLVER ELAPSED TIME:  7ms

               CONVERGENCE CHECKS FOR EQUILIBRIUM ITERATION     1


 AVERAGE FORCE                       0.00       TIME AVG. FORCE       1.000E-02
 ALL FORCE     RESIDUALS ARE ZERO
 LARGEST INCREMENT OF DISP.         5.000E-08   AT NODE          2   DOF  3
   INSTANCE: PART-1-1                                                                        
 LARGEST CORRECTION TO DISP.        5.000E-08   AT NODE          2   DOF  3
   INSTANCE: PART-1-1                                                                        
          THERE IS ZERO FORCE     EVERYWHERE

 AVERAGE HEAT FLUX                  9.506E+04   TIME AVG. HEAT FLUX   9.506E+04
 LARGEST RESIDUAL HEAT FLUX        -6.617E-23   AT NODE          2   DOF 11
   INSTANCE: PART-1-1                                                                        
 LARGEST INCREMENT OF TEMP.         1.500E-06   AT NODE          1   DOF 11
   INSTANCE: PART-1-1                                                                        
 LARGEST CORRECTION TO TEMP.        1.500E-06   AT NODE          1   DOF 11
   INSTANCE: PART-1-1                                                                        
          THE HEAT FLUX EQUILIBRIUM RESPONSE WAS LINEAR IN THIS INCREMENT

 MAXIMUM NON-PRESCRIBED INCREMENT IN TEMPERATURE IS   4.142E-18

 ITERATION SUMMARY FOR THE INCREMENT:   1 TOTAL ITERATIONS, OF WHICH
   0 ARE SEVERE DISCONTINUITY ITERATIONS AND  1 ARE EQUILIBRIUM ITERATIONS.

 TIME INCREMENT COMPLETED  1.000E-06,  FRACTION OF STEP COMPLETED  1.000E-06
 STEP TIME COMPLETED       1.000E-06,  TOTAL TIME COMPLETED        1.000E-06


  INCREMENT     2 STARTS. ATTEMPT NUMBER  1, TIME INCREMENT  1.000E-06
 
	UNSYMMETRIC NEW DIRECT SPARSE SOLVER RUNNING ON
 	1 HOST x 1 MPI RANK PER HOST x 1 THREAD PER RANK
        NUMBER OF EQUATIONS:  34
        NUMBER OF RHS:        1
        NUMBER OF FLOPS:      2.625e+04
        SOLVER ELAPSED TIME:  0ms

               CONVERGENCE CHECKS FOR EQUILIBRIUM ITERATION     1


 AVERAGE FORCE                      6.365E-14   TIME AVG. FORCE       1.000E-02
 LARGEST SCALED RESIDUAL FORCE      1.625E-13   AT NODE          9   DOF  3
   INSTANCE: PART-1-1                                                                        
  CORRESPONDING RESIDUAL FORCE      1.625E-13
 LARGEST INCREMENT OF DISP.         5.000E-08   AT NODE          2   DOF  3
   INSTANCE: PART-1-1                                                                        
 LARGEST CORRECTION TO DISP.        1.002E-18   AT NODE          5   DOF  3
   INSTANCE: PART-1-1                                                                        
          THERE IS ZERO FORCE     EVERYWHERE
 

 ***WARNING: THERE IS ZERO FORCE EVERYWHERE IN THE MODEL BASED ON THE DEFAULT 
             CRITERION. PLEASE CHECK THE VALUE OF THE AVERAGE FORCE DURING THE 
             CURRENT ITERATION TO VERIFY THAT THE FORCE IS SMALL ENOUGH TO BE 
             TREATED AS ZERO. IF NOT, PLEASE USE THE SOLUTION CONTROLS TO RESET 
             THE CRITERION FOR ZERO FORCE.

 AVERAGE HEAT FLUX                  1.268E+05   TIME AVG. HEAT FLUX   1.109E+05
 LARGEST RESIDUAL HEAT FLUX         1.853E-22   AT NODE          2   DOF 11
   INSTANCE: PART-1-1                                                                        
 LARGEST INCREMENT OF TEMP.         1.500E-06   AT NODE          1   DOF 11
   INSTANCE: PART-1-1                                                                        
 LARGEST CORRECTION TO TEMP.        4.142E-18   AT NODE          2   DOF 11
   INSTANCE: PART-1-1                                                                        
          THE HEAT FLUX EQUILIBRIUM RESPONSE WAS LINEAR IN THIS INCREMENT

 MAXIMUM NON-PRESCRIBED INCREMENT IN TEMPERATURE IS   8.284E-18

 ITERATION SUMMARY FOR THE INCREMENT:   1 TOTAL ITERATIONS, OF WHICH
   0 ARE SEVERE DISCONTINUITY ITERATIONS AND  1 ARE EQUILIBRIUM ITERATIONS.

 TIME INCREMENT COMPLETED  1.000E-06,  FRACTION OF STEP COMPLETED  2.000E-06
 STEP TIME COMPLETED       2.000E-06,  TOTAL TIME COMPLETED        2.000E-06


  INCREMENT     3 STARTS. ATTEMPT NUMBER  1, TIME INCREMENT  1.000E-06
 
	UNSYMMETRIC NEW DIRECT SPARSE SOLVER RUNNING ON
 	1 HOST x 1 MPI RANK PER HOST x 1 THREAD PER RANK
        NUMBER OF EQUATIONS:  34
        NUMBER OF RHS:        1
        NUMBER OF FLOPS:      2.625e+04
        SOLVER ELAPSED TIME:  0ms

               CONVERGENCE CHECKS FOR EQUILIBRIUM ITERATION     1


 AVERAGE FORCE                      1.273E-13   TIME AVG. FORCE       1.000E-02
 LARGEST SCALED RESIDUAL FORCE      3.250E-13   AT NODE          9   DOF  3
   INSTANCE: PART-1-1                                                                        
  CORRESPONDING RESIDUAL FORCE      3.250E-13
 LARGEST INCREMENT OF DISP.         5.000E-08   AT NODE          2   DOF  3
   INSTANCE: PART-1-1                                                                        
 LARGEST CORRECTION TO DISP.        2.004E-18   AT NODE          9   DOF  3
   INSTANCE: PART-1-1                                                                        
          THERE IS ZERO FORCE     EVERYWHERE
 

 ***WARNING: THERE IS ZERO FORCE EVERYWHERE IN THE MODEL BASED ON THE DEFAULT 
             CRITERION. PLEASE CHECK THE VALUE OF THE AVERAGE FORCE DURING THE 
             CURRENT ITERATION TO VERIFY THAT THE FORCE IS SMALL ENOUGH TO BE 
             TREATED AS ZERO. IF NOT, PLEASE USE THE SOLUTION CONTROLS TO RESET 
             THE CRITERION FOR ZERO FORCE.

 AVERAGE HEAT FLUX                  1.268E+05   TIME AVG. HEAT FLUX   1.162E+05
 LARGEST RESIDUAL HEAT FLUX        -1.588E-22   AT NODE          2   DOF 11
   INSTANCE: PART-1-1                                                                        
 LARGEST INCREMENT OF TEMP.         1.500E-06   AT NODE          1   DOF 11
   INSTANCE: PART-1-1                                                                        
 LARGEST CORRECTION TO TEMP.        4.142E-18   AT NODE          2   DOF 11
   INSTANCE: PART-1-1                                                                        
          THE HEAT FLUX EQUILIBRIUM RESPONSE WAS LINEAR IN THIS INCREMENT

 MAXIMUM NON-PRESCRIBED INCREMENT IN TEMPERATURE IS   1.243E-17
          TIME INCREMENT MAY NOW INCREASE TO    2.000E-06

 ITERATION SUMMARY FOR THE INCREMENT:   1 TOTAL ITERATIONS, OF WHICH
   0 ARE SEVERE DISCONTINUITY ITERATIONS AND  1 ARE EQUILIBRIUM ITERATIONS.

 TIME INCREMENT COMPLETED  1.000E-06,  FRACTION OF STEP COMPLETED  3.000E-06
 STEP TIME COMPLETED       3.000E-06,  TOTAL TIME COMPLETED        3.000E-06


  INCREMENT     4 STARTS. ATTEMPT NUMBER  1, TIME INCREMENT  2.000E-06
 
	UNSYMMETRIC NEW DIRECT SPARSE SOLVER RUNNING ON
 	1 HOST x 1 MPI RANK PER HOST x 1 THREAD PER RANK
        NUMBER OF EQUATIONS:  34
        NUMBER OF RHS:        1
        NUMBER OF FLOPS:      2.625e+04
        SOLVER ELAPSED TIME:  1ms

               CONVERGENCE CHECKS FOR EQUILIBRIUM ITERATION     1


 AVERAGE FORCE                      1.909E-13   TIME AVG. FORCE       1.000E-02
 LARGEST SCALED RESIDUAL FORCE      4.875E-13   AT NODE          9   DOF  3
   INSTANCE: PART-1-1                                                                        
  CORRESPONDING RESIDUAL FORCE      4.875E-13
 LARGEST INCREMENT OF DISP.         1.000E-07   AT NODE          2   DOF  3
   INSTANCE: PART-1-1                                                                        
 LARGEST CORRECTION TO DISP.        3.006E-18   AT NODE          9   DOF  3
   INSTANCE: PART-1-1                                                                        
          THERE IS ZERO FORCE     EVERYWHERE
 

 ***WARNING: THERE IS ZERO FORCE EVERYWHERE IN THE MODEL BASED ON THE DEFAULT 
             CRITERION. PLEASE CHECK THE VALUE OF THE AVERAGE FORCE DURING THE 
             CURRENT ITERATION TO VERIFY THAT THE FORCE IS SMALL ENOUGH TO BE 
             TREATED AS ZERO. IF NOT, PLEASE USE THE SOLUTION CONTROLS TO RESET 
             THE CRITERION FOR ZERO FORCE.

 AVERAGE HEAT FLUX                  1.268E+05   TIME AVG. HEAT FLUX   1.188E+05
 LARGEST RESIDUAL HEAT FLUX        -1.588E-22   AT NODE          2   DOF 11
   INSTANCE: PART-1-1                                                                        
 LARGEST INCREMENT OF TEMP.         3.000E-06   AT NODE          1   DOF 11
   INSTANCE: PART-1-1                                                                        
 LARGEST CORRECTION TO TEMP.        1.657E-17   AT NODE          2   DOF 11
   INSTANCE: PART-1-1                                                                        
          THE HEAT FLUX EQUILIBRIUM RESPONSE WAS LINEAR IN THIS INCREMENT

 MAXIMUM NON-PRESCRIBED INCREMENT IN TEMPERATURE IS   4.142E-17
          TIME INCREMENT MAY NOW INCREASE TO    4.000E-06

 ITERATION SUMMARY FOR THE INCREMENT:   1 TOTAL ITERATIONS, OF WHICH
   0 ARE SEVERE DISCONTINUITY ITERATIONS AND  1 ARE EQUILIBRIUM ITERATIONS.

 TIME INCREMENT COMPLETED  2.000E-06,  FRACTION OF STEP COMPLETED  5.000E-06
 STEP TIME COMPLETED       5.000E-06,  TOTAL TIME COMPLETED        5.000E-06


  INCREMENT     5 STARTS. ATTEMPT NUMBER  1, TIME INCREMENT  4.000E-06
 
	UNSYMMETRIC NEW DIRECT SPARSE SOLVER RUNNING ON
 	1 HOST x 1 MPI RANK PER HOST x 1 THREAD PER RANK
        NUMBER OF EQUATIONS:  34
        NUMBER OF RHS:        1
        NUMBER OF FLOPS:      2.625e+04
        SOLVER ELAPSED TIME:  0ms

               CONVERGENCE CHECKS FOR EQUILIBRIUM ITERATION     1


 AVERAGE FORCE                      3.182E-13   TIME AVG. FORCE       1.000E-02
 LARGEST SCALED RESIDUAL FORCE      8.125E-13   AT NODE          9   DOF  3
   INSTANCE: PART-1-1                                                                        
  CORRESPONDING RESIDUAL FORCE      8.125E-13
 LARGEST INCREMENT OF DISP.         2.000E-07   AT NODE          2   DOF  3
   INSTANCE: PART-1-1                                                                        
 LARGEST CORRECTION TO DISP.        5.010E-18   AT NODE          9   DOF  3
   INSTANCE: PART-1-1                                                                        
          THERE IS ZERO FORCE     EVERYWHERE
 

 ***WARNING: THERE IS ZERO FORCE EVERYWHERE IN THE MODEL BASED ON THE DEFAULT 
             CRITERION. PLEASE CHECK THE VALUE OF THE AVERAGE FORCE DURING THE 
             CURRENT ITERATION TO VERIFY THAT THE FORCE IS SMALL ENOUGH TO BE 
             TREATED AS ZERO. IF NOT, PLEASE USE THE SOLUTION CONTROLS TO RESET 
             THE CRITERION FOR ZERO FORCE.

 AVERAGE HEAT FLUX                  1.268E+05   TIME AVG. HEAT FLUX   1.204E+05
 LARGEST RESIDUAL HEAT FLUX         3.176E-22   AT NODE          2   DOF 11
   INSTANCE: PART-1-1                                                                        
 LARGEST INCREMENT OF TEMP.         6.000E-06   AT NODE          1   DOF 11
   INSTANCE: PART-1-1                                                                        
 LARGEST CORRECTION TO TEMP.        6.627E-17   AT NODE          2   DOF 11
   INSTANCE: PART-1-1                                                                        
          THE HEAT FLUX EQUILIBRIUM RESPONSE WAS LINEAR IN THIS INCREMENT

 MAXIMUM NON-PRESCRIBED INCREMENT IN TEMPERATURE IS   1.491E-16
          TIME INCREMENT MAY NOW INCREASE TO    8.000E-06

 ITERATION SUMMARY FOR THE INCREMENT:   1 TOTAL ITERATIONS, OF WHICH
   0 ARE SEVERE DISCONTINUITY ITERATIONS AND  1 ARE EQUILIBRIUM ITERATIONS.

 TIME INCREMENT COMPLETED  4.000E-06,  FRACTION OF STEP COMPLETED  9.000E-06
 STEP TIME COMPLETED       9.000E-06,  TOTAL TIME COMPLETED        9.000E-06


  INCREMENT     6 STARTS. ATTEMPT NUMBER  1, TIME INCREMENT  8.000E-06
 
	UNSYMMETRIC NEW DIRECT SPARSE SOLVER RUNNING ON
 	1 HOST x 1 MPI RANK PER HOST x 1 THREAD PER RANK
        NUMBER OF EQUATIONS:  34
        NUMBER OF RHS:        1
        NUMBER OF FLOPS:      2.625e+04
        SOLVER ELAPSED TIME:  0ms

               CONVERGENCE CHECKS FOR EQUILIBRIUM ITERATION     1


 AVERAGE FORCE                      5.728E-13   TIME AVG. FORCE       1.000E-02
 LARGEST SCALED RESIDUAL FORCE      1.463E-12   AT NODE          9   DOF  3
   INSTANCE: PART-1-1                                                                        
  CORRESPONDING RESIDUAL FORCE      1.463E-12
 LARGEST INCREMENT OF DISP.         4.000E-07   AT NODE          2   DOF  3
   INSTANCE: PART-1-1                                                                        
 LARGEST CORRECTION TO DISP.        9.018E-18   AT NODE          9   DOF  3
   INSTANCE: PART-1-1                                                                        
          THERE IS ZERO FORCE     EVERYWHERE
 

 ***WARNING: THERE IS ZERO FORCE EVERYWHERE IN THE MODEL BASED ON THE DEFAULT 
             CRITERION. PLEASE CHECK THE VALUE OF THE AVERAGE FORCE DURING THE 
             CURRENT ITERATION TO VERIFY THAT THE FORCE IS SMALL ENOUGH TO BE 
             TREATED AS ZERO. IF NOT, PLEASE USE THE SOLUTION CONTROLS TO RESET 
             THE CRITERION FOR ZERO FORCE.

 AVERAGE HEAT FLUX                  1.268E+05   TIME AVG. HEAT FLUX   1.215E+05
 LARGEST RESIDUAL HEAT FLUX        -1.906E-21   AT NODE          2   DOF 11
   INSTANCE: PART-1-1                                                                        
 LARGEST INCREMENT OF TEMP.         1.200E-05   AT NODE          1   DOF 11
   INSTANCE: PART-1-1                                                                        
 LARGEST CORRECTION TO TEMP.        2.651E-16   AT NODE          2   DOF 11
   INSTANCE: PART-1-1                                                                        
          THE HEAT FLUX EQUILIBRIUM RESPONSE WAS LINEAR IN THIS INCREMENT

 MAXIMUM NON-PRESCRIBED INCREMENT IN TEMPERATURE IS   5.633E-16
          TIME INCREMENT MAY NOW INCREASE TO    1.600E-05

 ITERATION SUMMARY FOR THE INCREMENT:   1 TOTAL ITERATIONS, OF WHICH
   0 ARE SEVERE DISCONTINUITY ITERATIONS AND  1 ARE EQUILIBRIUM ITERATIONS.

 TIME INCREMENT COMPLETED  8.000E-06,  FRACTION OF STEP COMPLETED  1.700E-05
 STEP TIME COMPLETED       1.700E-05,  TOTAL TIME COMPLETED        1.700E-05


  INCREMENT     7 STARTS. ATTEMPT NUMBER  1, TIME INCREMENT  1.600E-05
 
	UNSYMMETRIC NEW DIRECT SPARSE SOLVER RUNNING ON
 	1 HOST x 1 MPI RANK PER HOST x 1 THREAD PER RANK
        NUMBER OF EQUATIONS:  34
        NUMBER OF RHS:        1
        NUMBER OF FLOPS:      2.625e+04
        SOLVER ELAPSED TIME:  0ms

               CONVERGENCE CHECKS FOR EQUILIBRIUM ITERATION     1


 AVERAGE FORCE                      1.082E-12   TIME AVG. FORCE       1.000E-02
 LARGEST SCALED RESIDUAL FORCE      2.763E-12   AT NODE          9   DOF  3
   INSTANCE: PART-1-1                                                                        
  CORRESPONDING RESIDUAL FORCE      2.763E-12
 LARGEST INCREMENT OF DISP.         8.000E-07   AT NODE          2   DOF  3
   INSTANCE: PART-1-1                                                                        
 LARGEST CORRECTION TO DISP.        1.703E-17   AT NODE          9   DOF  3
   INSTANCE: PART-1-1                                                                        
          THERE IS ZERO FORCE     EVERYWHERE
 

 ***WARNING: THERE IS ZERO FORCE EVERYWHERE IN THE MODEL BASED ON THE DEFAULT 
             CRITERION. PLEASE CHECK THE VALUE OF THE AVERAGE FORCE DURING THE 
             CURRENT ITERATION TO VERIFY THAT THE FORCE IS SMALL ENOUGH TO BE 
             TREATED AS ZERO. IF NOT, PLEASE USE THE SOLUTION CONTROLS TO RESET 
             THE CRITERION FOR ZERO FORCE.

 AVERAGE HEAT FLUX                  1.268E+05   TIME AVG. HEAT FLUX   1.222E+05
 LARGEST RESIDUAL HEAT FLUX         1.271E-21   AT NODE          2   DOF 11
   INSTANCE: PART-1-1                                                                        
 LARGEST INCREMENT OF TEMP.         2.400E-05   AT NODE          1   DOF 11
   INSTANCE: PART-1-1                                                                        
 LARGEST CORRECTION TO TEMP.        1.060E-15   AT NODE          2   DOF 11
   INSTANCE: PART-1-1                                                                        
          THE HEAT FLUX EQUILIBRIUM RESPONSE WAS LINEAR IN THIS INCREMENT

 MAXIMUM NON-PRESCRIBED INCREMENT IN TEMPERATURE IS   2.187E-15
          TIME INCREMENT MAY NOW INCREASE TO    3.200E-05

 ITERATION SUMMARY FOR THE INCREMENT:   1 TOTAL ITERATIONS, OF WHICH
   0 ARE SEVERE DISCONTINUITY ITERATIONS AND  1 ARE EQUILIBRIUM ITERATIONS.

 TIME INCREMENT COMPLETED  1.600E-05,  FRACTION OF STEP COMPLETED  3.300E-05
 STEP TIME COMPLETED       3.300E-05,  TOTAL TIME COMPLETED        3.300E-05


  INCREMENT     8 STARTS. ATTEMPT NUMBER  1, TIME INCREMENT  3.200E-05
 
	UNSYMMETRIC NEW DIRECT SPARSE SOLVER RUNNING ON
 	1 HOST x 1 MPI RANK PER HOST x 1 THREAD PER RANK
        NUMBER OF EQUATIONS:  34
        NUMBER OF RHS:        1
        NUMBER OF FLOPS:      2.625e+04
        SOLVER ELAPSED TIME:  0ms

               CONVERGENCE CHECKS FOR EQUILIBRIUM ITERATION     1


 AVERAGE FORCE                      2.100E-12   TIME AVG. FORCE       1.000E-02
 LARGEST SCALED RESIDUAL FORCE      5.363E-12   AT NODE          9   DOF  3
   INSTANCE: PART-1-1                                                                        
  CORRESPONDING RESIDUAL FORCE      5.363E-12
 LARGEST INCREMENT OF DISP.         1.600E-06   AT NODE          2   DOF  3
   INSTANCE: PART-1-1                                                                        
 LARGEST CORRECTION TO DISP.        3.307E-17   AT NODE          5   DOF  3
   INSTANCE: PART-1-1                                                                        
          THERE IS ZERO FORCE     EVERYWHERE
 

 ***WARNING: THERE IS ZERO FORCE EVERYWHERE IN THE MODEL BASED ON THE DEFAULT 
             CRITERION. PLEASE CHECK THE VALUE OF THE AVERAGE FORCE DURING THE 
             CURRENT ITERATION TO VERIFY THAT THE FORCE IS SMALL ENOUGH TO BE 
             TREATED AS ZERO. IF NOT, PLEASE USE THE SOLUTION CONTROLS TO RESET 
             THE CRITERION FOR ZERO FORCE.

 AVERAGE HEAT FLUX                  1.268E+05   TIME AVG. HEAT FLUX   1.228E+05
 LARGEST RESIDUAL HEAT FLUX        -8.470E-22   AT NODE          2   DOF 11
   INSTANCE: PART-1-1                                                                        
 LARGEST INCREMENT OF TEMP.         4.800E-05   AT NODE          1   DOF 11
   INSTANCE: PART-1-1                                                                        
 LARGEST CORRECTION TO TEMP.        4.241E-15   AT NODE          2   DOF 11
   INSTANCE: PART-1-1                                                                        
          THE HEAT FLUX EQUILIBRIUM RESPONSE WAS LINEAR IN THIS INCREMENT

 MAXIMUM NON-PRESCRIBED INCREMENT IN TEMPERATURE IS   8.615E-15
          TIME INCREMENT MAY NOW INCREASE TO    6.400E-05

 ITERATION SUMMARY FOR THE INCREMENT:   1 TOTAL ITERATIONS, OF WHICH
   0 ARE SEVERE DISCONTINUITY ITERATIONS AND  1 ARE EQUILIBRIUM ITERATIONS.

 TIME INCREMENT COMPLETED  3.200E-05,  FRACTION OF STEP COMPLETED  6.500E-05
 STEP TIME COMPLETED       6.500E-05,  TOTAL TIME COMPLETED        6.500E-05


  INCREMENT     9 STARTS. ATTEMPT NUMBER  1, TIME INCREMENT  6.400E-05
 
	UNSYMMETRIC NEW DIRECT SPARSE SOLVER RUNNING ON
 	1 HOST x 1 MPI RANK PER HOST x 1 THREAD PER RANK
        NUMBER OF EQUATIONS:  34
        NUMBER OF RHS:        1
        NUMBER OF FLOPS:      2.625e+04
        SOLVER ELAPSED TIME:  0ms

               CONVERGENCE CHECKS FOR EQUILIBRIUM ITERATION     1


 AVERAGE FORCE                      4.137E-12   TIME AVG. FORCE       1.000E-02
 LARGEST SCALED RESIDUAL FORCE      1.056E-11   AT NODE          9   DOF  3
   INSTANCE: PART-1-1                                                                        
  CORRESPONDING RESIDUAL FORCE      1.056E-11
 LARGEST INCREMENT OF DISP.         3.200E-06   AT NODE          2   DOF  3
   INSTANCE: PART-1-1                                                                        
 LARGEST CORRECTION TO DISP.        6.513E-17   AT NODE          5   DOF  3
   INSTANCE: PART-1-1                                                                        
          THERE IS ZERO FORCE     EVERYWHERE
 

 ***WARNING: THERE IS ZERO FORCE EVERYWHERE IN THE MODEL BASED ON THE DEFAULT 
             CRITERION. PLEASE CHECK THE VALUE OF THE AVERAGE FORCE DURING THE 
             CURRENT ITERATION TO VERIFY THAT THE FORCE IS SMALL ENOUGH TO BE 
             TREATED AS ZERO. IF NOT, PLEASE USE THE SOLUTION CONTROLS TO RESET 
             THE CRITERION FOR ZERO FORCE.

 AVERAGE HEAT FLUX                  1.268E+05   TIME AVG. HEAT FLUX   1.232E+05
 LARGEST RESIDUAL HEAT FLUX         1.694E-21   AT NODE          2   DOF 11
   INSTANCE: PART-1-1                                                                        
 LARGEST INCREMENT OF TEMP.         9.600E-05   AT NODE          1   DOF 11
   INSTANCE: PART-1-1                                                                        
 LARGEST CORRECTION TO TEMP.        1.697E-14   AT NODE          2   DOF 11
   INSTANCE: PART-1-1                                                                        
          THE HEAT FLUX EQUILIBRIUM RESPONSE WAS LINEAR IN THIS INCREMENT

 MAXIMUM NON-PRESCRIBED INCREMENT IN TEMPERATURE IS   3.420E-14
          TIME INCREMENT MAY NOW INCREASE TO    1.280E-04

 ITERATION SUMMARY FOR THE INCREMENT:   1 TOTAL ITERATIONS, OF WHICH
   0 ARE SEVERE DISCONTINUITY ITERATIONS AND  1 ARE EQUILIBRIUM ITERATIONS.

 TIME INCREMENT COMPLETED  6.400E-05,  FRACTION OF STEP COMPLETED  1.290E-04
 STEP TIME COMPLETED       1.290E-04,  TOTAL TIME COMPLETED        1.290E-04


  INCREMENT    10 STARTS. ATTEMPT NUMBER  1, TIME INCREMENT  1.280E-04
 
	UNSYMMETRIC NEW DIRECT SPARSE SOLVER RUNNING ON
 	1 HOST x 1 MPI RANK PER HOST x 1 THREAD PER RANK
        NUMBER OF EQUATIONS:  34
        NUMBER OF RHS:        1
        NUMBER OF FLOPS:      2.625e+04
        SOLVER ELAPSED TIME:  0ms

               CONVERGENCE CHECKS FOR EQUILIBRIUM ITERATION     1


 AVERAGE FORCE                      8.210E-12   TIME AVG. FORCE       1.000E-02
 LARGEST SCALED RESIDUAL FORCE      2.096E-11   AT NODE          9   DOF  3
   INSTANCE: PART-1-1                                                                        
  CORRESPONDING RESIDUAL FORCE      2.096E-11
 LARGEST INCREMENT OF DISP.         6.400E-06   AT NODE          2   DOF  3
   INSTANCE: PART-1-1                                                                        
 LARGEST CORRECTION TO DISP.        1.293E-16   AT NODE          5   DOF  3
   INSTANCE: PART-1-1                                                                        
          THERE IS ZERO FORCE     EVERYWHERE
 

 ***WARNING: THERE IS ZERO FORCE EVERYWHERE IN THE MODEL BASED ON THE DEFAULT 
             CRITERION. PLEASE CHECK THE VALUE OF THE AVERAGE FORCE DURING THE 
             CURRENT ITERATION TO VERIFY THAT THE FORCE IS SMALL ENOUGH TO BE 
             TREATED AS ZERO. IF NOT, PLEASE USE THE SOLUTION CONTROLS TO RESET 
             THE CRITERION FOR ZERO FORCE.

 AVERAGE HEAT FLUX                  1.268E+05   TIME AVG. HEAT FLUX   1.236E+05
 LARGEST RESIDUAL HEAT FLUX        -1.694E-20   AT NODE          2   DOF 11
   INSTANCE: PART-1-1                                                                        
 LARGEST INCREMENT OF TEMP.         1.920E-04   AT NODE          1   DOF 11
   INSTANCE: PART-1-1                                                                        
 LARGEST CORRECTION TO TEMP.        6.786E-14   AT NODE          2   DOF 11
   INSTANCE: PART-1-1                                                                        
          THE HEAT FLUX EQUILIBRIUM RESPONSE WAS LINEAR IN THIS INCREMENT

 MAXIMUM NON-PRESCRIBED INCREMENT IN TEMPERATURE IS   1.363E-13
          TIME INCREMENT MAY NOW INCREASE TO    2.560E-04

 ITERATION SUMMARY FOR THE INCREMENT:   1 TOTAL ITERATIONS, OF WHICH
   0 ARE SEVERE DISCONTINUITY ITERATIONS AND  1 ARE EQUILIBRIUM ITERATIONS.

 TIME INCREMENT COMPLETED  1.280E-04,  FRACTION OF STEP COMPLETED  2.570E-04
 STEP TIME COMPLETED       2.570E-04,  TOTAL TIME COMPLETED        2.570E-04


  INCREMENT    11 STARTS. ATTEMPT NUMBER  1, TIME INCREMENT  2.560E-04
 
	UNSYMMETRIC NEW DIRECT SPARSE SOLVER RUNNING ON
 	1 HOST x 1 MPI RANK PER HOST x 1 THREAD PER RANK
        NUMBER OF EQUATIONS:  34
        NUMBER OF RHS:        1
        NUMBER OF FLOPS:      2.625e+04
        SOLVER ELAPSED TIME:  0ms

               CONVERGENCE CHECKS FOR EQUILIBRIUM ITERATION     1


 AVERAGE FORCE                      1.636E-11   TIME AVG. FORCE       1.000E-02
 LARGEST SCALED RESIDUAL FORCE      4.176E-11   AT NODE          9   DOF  3
   INSTANCE: PART-1-1                                                                        
  CORRESPONDING RESIDUAL FORCE      4.176E-11
 LARGEST INCREMENT OF DISP.         1.280E-05   AT NODE          2   DOF  3
   INSTANCE: PART-1-1                                                                        
 LARGEST CORRECTION TO DISP.        2.575E-16   AT NODE          5   DOF  3
   INSTANCE: PART-1-1                                                                        
          THERE IS ZERO FORCE     EVERYWHERE
 

 ***WARNING: THERE IS ZERO FORCE EVERYWHERE IN THE MODEL BASED ON THE DEFAULT 
             CRITERION. PLEASE CHECK THE VALUE OF THE AVERAGE FORCE DURING THE 
             CURRENT ITERATION TO VERIFY THAT THE FORCE IS SMALL ENOUGH TO BE 
             TREATED AS ZERO. IF NOT, PLEASE USE THE SOLUTION CONTROLS TO RESET 
             THE CRITERION FOR ZERO FORCE.

 AVERAGE HEAT FLUX                  1.268E+05   TIME AVG. HEAT FLUX   1.239E+05
 LARGEST RESIDUAL HEAT FLUX        -2.033E-20   AT NODE          2   DOF 11
   INSTANCE: PART-1-1                                                                        
 LARGEST INCREMENT OF TEMP.         3.840E-04   AT NODE          1   DOF 11
   INSTANCE: PART-1-1                                                                        
 LARGEST CORRECTION TO TEMP.        2.715E-13   AT NODE          2   DOF 11
   INSTANCE: PART-1-1                                                                        
          THE HEAT FLUX EQUILIBRIUM RESPONSE WAS LINEAR IN THIS INCREMENT

 MAXIMUM NON-PRESCRIBED INCREMENT IN TEMPERATURE IS   5.440E-13
          TIME INCREMENT MAY NOW INCREASE TO    5.120E-04

 ITERATION SUMMARY FOR THE INCREMENT:   1 TOTAL ITERATIONS, OF WHICH
   0 ARE SEVERE DISCONTINUITY ITERATIONS AND  1 ARE EQUILIBRIUM ITERATIONS.

 TIME INCREMENT COMPLETED  2.560E-04,  FRACTION OF STEP COMPLETED  5.130E-04
 STEP TIME COMPLETED       5.130E-04,  TOTAL TIME COMPLETED        5.130E-04


  INCREMENT    12 STARTS. ATTEMPT NUMBER  1, TIME INCREMENT  5.120E-04
 
	UNSYMMETRIC NEW DIRECT SPARSE SOLVER RUNNING ON
 	1 HOST x 1 MPI RANK PER HOST x 1 THREAD PER RANK
        NUMBER OF EQUATIONS:  34
        NUMBER OF RHS:        1
        NUMBER OF FLOPS:      2.625e+04
        SOLVER ELAPSED TIME:  0ms

               CONVERGENCE CHECKS FOR EQUILIBRIUM ITERATION     1


 AVERAGE FORCE                      3.265E-11   TIME AVG. FORCE       1.000E-02
 LARGEST SCALED RESIDUAL FORCE      8.336E-11   AT NODE          9   DOF  3
   INSTANCE: PART-1-1                                                                        
  CORRESPONDING RESIDUAL FORCE      8.336E-11
 LARGEST INCREMENT OF DISP.         2.560E-05   AT NODE          2   DOF  3
   INSTANCE: PART-1-1                                                                        
 LARGEST CORRECTION TO DISP.        5.140E-16   AT NODE          9   DOF  3
   INSTANCE: PART-1-1                                                                        
          THERE IS ZERO FORCE     EVERYWHERE
 

 ***WARNING: THERE IS ZERO FORCE EVERYWHERE IN THE MODEL BASED ON THE DEFAULT 
             CRITERION. PLEASE CHECK THE VALUE OF THE AVERAGE FORCE DURING THE 
             CURRENT ITERATION TO VERIFY THAT THE FORCE IS SMALL ENOUGH TO BE 
             TREATED AS ZERO. IF NOT, PLEASE USE THE SOLUTION CONTROLS TO RESET 
             THE CRITERION FOR ZERO FORCE.

 AVERAGE HEAT FLUX                  1.268E+05   TIME AVG. HEAT FLUX   1.241E+05
 LARGEST RESIDUAL HEAT FLUX         2.711E-20   AT NODE          2   DOF 11
   INSTANCE: PART-1-1                                                                        
 LARGEST INCREMENT OF TEMP.         7.680E-04   AT NODE          1   DOF 11
   INSTANCE: PART-1-1                                                                        
 LARGEST CORRECTION TO TEMP.        1.086E-12   AT NODE          2   DOF 11
   INSTANCE: PART-1-1                                                                        
          THE HEAT FLUX EQUILIBRIUM RESPONSE WAS LINEAR IN THIS INCREMENT

 MAXIMUM NON-PRESCRIBED INCREMENT IN TEMPERATURE IS   2.174E-12
          TIME INCREMENT MAY NOW INCREASE TO    1.024E-03

 ITERATION SUMMARY FOR THE INCREMENT:   1 TOTAL ITERATIONS, OF WHICH
   0 ARE SEVERE DISCONTINUITY ITERATIONS AND  1 ARE EQUILIBRIUM ITERATIONS.

 TIME INCREMENT COMPLETED  5.120E-04,  FRACTION OF STEP COMPLETED  1.025E-03
 STEP TIME COMPLETED       1.025E-03,  TOTAL TIME COMPLETED        1.025E-03


  INCREMENT    13 STARTS. ATTEMPT NUMBER  1, TIME INCREMENT  1.024E-03
 
	UNSYMMETRIC NEW DIRECT SPARSE SOLVER RUNNING ON
 	1 HOST x 1 MPI RANK PER HOST x 1 THREAD PER RANK
        NUMBER OF EQUATIONS:  34
        NUMBER OF RHS:        1
        NUMBER OF FLOPS:      2.625e+04
        SOLVER ELAPSED TIME:  0ms

               CONVERGENCE CHECKS FOR EQUILIBRIUM ITERATION     1


 AVERAGE FORCE                      6.524E-11   TIME AVG. FORCE       1.000E-02
 LARGEST SCALED RESIDUAL FORCE      1.666E-10   AT NODE          9   DOF  3
   INSTANCE: PART-1-1                                                                        
  CORRESPONDING RESIDUAL FORCE      1.666E-10
 LARGEST INCREMENT OF DISP.         5.120E-05   AT NODE          2   DOF  3
   INSTANCE: PART-1-1                                                                        
 LARGEST CORRECTION TO DISP.        1.027E-15   AT NODE          5   DOF  3
   INSTANCE: PART-1-1                                                                        
          THERE IS ZERO FORCE     EVERYWHERE
 

 ***WARNING: THERE IS ZERO FORCE EVERYWHERE IN THE MODEL BASED ON THE DEFAULT 
             CRITERION. PLEASE CHECK THE VALUE OF THE AVERAGE FORCE DURING THE 
             CURRENT ITERATION TO VERIFY THAT THE FORCE IS SMALL ENOUGH TO BE 
             TREATED AS ZERO. IF NOT, PLEASE USE THE SOLUTION CONTROLS TO RESET 
             THE CRITERION FOR ZERO FORCE.

 AVERAGE HEAT FLUX                  1.268E+05   TIME AVG. HEAT FLUX   1.243E+05
 LARGEST RESIDUAL HEAT FLUX         2.711E-20   AT NODE          2   DOF 11
   INSTANCE: PART-1-1                                                                        
 LARGEST INCREMENT OF TEMP.         1.536E-03   AT NODE          1   DOF 11
   INSTANCE: PART-1-1                                                                        
 LARGEST CORRECTION TO TEMP.        4.343E-12   AT NODE          2   DOF 11
   INSTANCE: PART-1-1                                                                        
          THE HEAT FLUX EQUILIBRIUM RESPONSE WAS LINEAR IN THIS INCREMENT

 MAXIMUM NON-PRESCRIBED INCREMENT IN TEMPERATURE IS   8.691E-12
          TIME INCREMENT MAY NOW INCREASE TO    2.048E-03

 ITERATION SUMMARY FOR THE INCREMENT:   1 TOTAL ITERATIONS, OF WHICH
   0 ARE SEVERE DISCONTINUITY ITERATIONS AND  1 ARE EQUILIBRIUM ITERATIONS.

 TIME INCREMENT COMPLETED  1.024E-03,  FRACTION OF STEP COMPLETED  2.049E-03
 STEP TIME COMPLETED       2.049E-03,  TOTAL TIME COMPLETED        2.049E-03


  INCREMENT    14 STARTS. ATTEMPT NUMBER  1, TIME INCREMENT  2.048E-03
 
	UNSYMMETRIC NEW DIRECT SPARSE SOLVER RUNNING ON
 	1 HOST x 1 MPI RANK PER HOST x 1 THREAD PER RANK
        NUMBER OF EQUATIONS:  34
        NUMBER OF RHS:        1
        NUMBER OF FLOPS:      2.625e+04
        SOLVER ELAPSED TIME:  0ms

               CONVERGENCE CHECKS FOR EQUILIBRIUM ITERATION     1


 AVERAGE FORCE                      1.304E-10   TIME AVG. FORCE       1.000E-02
 LARGEST SCALED RESIDUAL FORCE      3.330E-10   AT NODE          9   DOF  3
   INSTANCE: PART-1-1                                                                        
  CORRESPONDING RESIDUAL FORCE      3.330E-10
 LARGEST INCREMENT OF DISP.         1.024E-04   AT NODE          2   DOF  3
   INSTANCE: PART-1-1                                                                        
 LARGEST CORRECTION TO DISP.        2.053E-15   AT NODE          5   DOF  3
   INSTANCE: PART-1-1                                                                        
          THERE IS ZERO FORCE     EVERYWHERE
 

 ***WARNING: THERE IS ZERO FORCE EVERYWHERE IN THE MODEL BASED ON THE DEFAULT 
             CRITERION. PLEASE CHECK THE VALUE OF THE AVERAGE FORCE DURING THE 
             CURRENT ITERATION TO VERIFY THAT THE FORCE IS SMALL ENOUGH TO BE 
             TREATED AS ZERO. IF NOT, PLEASE USE THE SOLUTION CONTROLS TO RESET 
             THE CRITERION FOR ZERO FORCE.

 AVERAGE HEAT FLUX                  1.268E+05   TIME AVG. HEAT FLUX   1.245E+05
 LARGEST RESIDUAL HEAT FLUX        -2.711E-19   AT NODE          2   DOF 11
   INSTANCE: PART-1-1                                                                        
 LARGEST INCREMENT OF TEMP.         3.072E-03   AT NODE          1   DOF 11
   INSTANCE: PART-1-1                                                                        
 LARGEST CORRECTION TO TEMP.        1.737E-11   AT NODE          2   DOF 11
   INSTANCE: PART-1-1                                                                        
          THE HEAT FLUX EQUILIBRIUM RESPONSE WAS LINEAR IN THIS INCREMENT

 MAXIMUM NON-PRESCRIBED INCREMENT IN TEMPERATURE IS   3.475E-11
          TIME INCREMENT MAY NOW INCREASE TO    4.096E-03

 ITERATION SUMMARY FOR THE INCREMENT:   1 TOTAL ITERATIONS, OF WHICH
   0 ARE SEVERE DISCONTINUITY ITERATIONS AND  1 ARE EQUILIBRIUM ITERATIONS.

 TIME INCREMENT COMPLETED  2.048E-03,  FRACTION OF STEP COMPLETED  4.097E-03
 STEP TIME COMPLETED       4.097E-03,  TOTAL TIME COMPLETED        4.097E-03


  INCREMENT    15 STARTS. ATTEMPT NUMBER  1, TIME INCREMENT  4.096E-03
 
	UNSYMMETRIC NEW DIRECT SPARSE SOLVER RUNNING ON
 	1 HOST x 1 MPI RANK PER HOST x 1 THREAD PER RANK
        NUMBER OF EQUATIONS:  34
        NUMBER OF RHS:        1
        NUMBER OF FLOPS:      2.625e+04
        SOLVER ELAPSED TIME:  0ms

               CONVERGENCE CHECKS FOR EQUILIBRIUM ITERATION     1


 AVERAGE FORCE                      2.608E-10   TIME AVG. FORCE       1.000E-02
 LARGEST SCALED RESIDUAL FORCE      6.658E-10   AT NODE          9   DOF  3
   INSTANCE: PART-1-1                                                                        
  CORRESPONDING RESIDUAL FORCE      6.658E-10
 LARGEST INCREMENT OF DISP.         2.048E-04   AT NODE          2   DOF  3
   INSTANCE: PART-1-1                                                                        
 LARGEST CORRECTION TO DISP.        4.105E-15   AT NODE          5   DOF  3
   INSTANCE: PART-1-1                                                                        
          THERE IS ZERO FORCE     EVERYWHERE
 

 ***WARNING: THERE IS ZERO FORCE EVERYWHERE IN THE MODEL BASED ON THE DEFAULT 
             CRITERION. PLEASE CHECK THE VALUE OF THE AVERAGE FORCE DURING THE 
             CURRENT ITERATION TO VERIFY THAT THE FORCE IS SMALL ENOUGH TO BE 
             TREATED AS ZERO. IF NOT, PLEASE USE THE SOLUTION CONTROLS TO RESET 
             THE CRITERION FOR ZERO FORCE.

 AVERAGE HEAT FLUX                  1.268E+05   TIME AVG. HEAT FLUX   1.246E+05
 LARGEST RESIDUAL HEAT FLUX          0.00       AT NODE          2   DOF 11
   INSTANCE: PART-1-1                                                                        
 LARGEST INCREMENT OF TEMP.         6.144E-03   AT NODE          1   DOF 11
   INSTANCE: PART-1-1                                                                        
 LARGEST CORRECTION TO TEMP.        6.949E-11   AT NODE          2   DOF 11
   INSTANCE: PART-1-1                                                                        
          THE HEAT FLUX EQUILIBRIUM RESPONSE WAS LINEAR IN THIS INCREMENT

 MAXIMUM NON-PRESCRIBED INCREMENT IN TEMPERATURE IS   1.390E-10
          TIME INCREMENT MAY NOW INCREASE TO    8.192E-03

 ITERATION SUMMARY FOR THE INCREMENT:   1 TOTAL ITERATIONS, OF WHICH
   0 ARE SEVERE DISCONTINUITY ITERATIONS AND  1 ARE EQUILIBRIUM ITERATIONS.

 TIME INCREMENT COMPLETED  4.096E-03,  FRACTION OF STEP COMPLETED  8.193E-03
 STEP TIME COMPLETED       8.193E-03,  TOTAL TIME COMPLETED        8.193E-03


  INCREMENT    16 STARTS. ATTEMPT NUMBER  1, TIME INCREMENT  8.192E-03
 
	UNSYMMETRIC NEW DIRECT SPARSE SOLVER RUNNING ON
 	1 HOST x 1 MPI RANK PER HOST x 1 THREAD PER RANK
        NUMBER OF EQUATIONS:  34
        NUMBER OF RHS:        1
        NUMBER OF FLOPS:      2.625e+04
        SOLVER ELAPSED TIME:  0ms

               CONVERGENCE CHECKS FOR EQUILIBRIUM ITERATION     1


 AVERAGE FORCE                      5.215E-10   TIME AVG. FORCE       1.000E-02
 LARGEST SCALED RESIDUAL FORCE      1.331E-09   AT NODE          9   DOF  3
   INSTANCE: PART-1-1                                                                        
  CORRESPONDING RESIDUAL FORCE      1.331E-09
 LARGEST INCREMENT OF DISP.         4.096E-04   AT NODE          2   DOF  3
   INSTANCE: PART-1-1                                                                        
 LARGEST CORRECTION TO DISP.        8.210E-15   AT NODE          9   DOF  3
   INSTANCE: PART-1-1                                                                        
          THERE IS ZERO FORCE     EVERYWHERE
 

 ***WARNING: THERE IS ZERO FORCE EVERYWHERE IN THE MODEL BASED ON THE DEFAULT 
             CRITERION. PLEASE CHECK THE VALUE OF THE AVERAGE FORCE DURING THE 
             CURRENT ITERATION TO VERIFY THAT THE FORCE IS SMALL ENOUGH TO BE 
             TREATED AS ZERO. IF NOT, PLEASE USE THE SOLUTION CONTROLS TO RESET 
             THE CRITERION FOR ZERO FORCE.

 AVERAGE HEAT FLUX                  1.268E+05   TIME AVG. HEAT FLUX   1.248E+05
 LARGEST RESIDUAL HEAT FLUX        -4.337E-19   AT NODE          2   DOF 11
   INSTANCE: PART-1-1                                                                        
 LARGEST INCREMENT OF TEMP.         1.229E-02   AT NODE          1   DOF 11
   INSTANCE: PART-1-1                                                                        
 LARGEST CORRECTION TO TEMP.        2.780E-10   AT NODE          2   DOF 11
   INSTANCE: PART-1-1                                                                        
          THE HEAT FLUX EQUILIBRIUM RESPONSE WAS LINEAR IN THIS INCREMENT

 MAXIMUM NON-PRESCRIBED INCREMENT IN TEMPERATURE IS   5.560E-10
          TIME INCREMENT MAY NOW INCREASE TO    1.000E-02

 ITERATION SUMMARY FOR THE INCREMENT:   1 TOTAL ITERATIONS, OF WHICH
   0 ARE SEVERE DISCONTINUITY ITERATIONS AND  1 ARE EQUILIBRIUM ITERATIONS.

 TIME INCREMENT COMPLETED  8.192E-03,  FRACTION OF STEP COMPLETED  1.638E-02
 STEP TIME COMPLETED       1.638E-02,  TOTAL TIME COMPLETED        1.638E-02


  INCREMENT    17 STARTS. ATTEMPT NUMBER  1, TIME INCREMENT  1.000E-02
 
	UNSYMMETRIC NEW DIRECT SPARSE SOLVER RUNNING ON
 	1 HOST x 1 MPI RANK PER HOST x 1 THREAD PER RANK
        NUMBER OF EQUATIONS:  34
        NUMBER OF RHS:        1
        NUMBER OF FLOPS:      2.625e+04
        SOLVER ELAPSED TIME:  0ms

               CONVERGENCE CHECKS FOR EQUILIBRIUM ITERATION     1


 AVERAGE FORCE                      1.043E-09   TIME AVG. FORCE       1.000E-02
 LARGEST SCALED RESIDUAL FORCE      2.663E-09   AT NODE          9   DOF  3
   INSTANCE: PART-1-1                                                                        
  CORRESPONDING RESIDUAL FORCE      2.663E-09
 LARGEST INCREMENT OF DISP.         5.000E-04   AT NODE          2   DOF  3
   INSTANCE: PART-1-1                                                                        
 LARGEST CORRECTION TO DISP.        1.642E-14   AT NODE          9   DOF  3
   INSTANCE: PART-1-1                                                                        
          THERE IS ZERO FORCE     EVERYWHERE
 

 ***WARNING: THERE IS ZERO FORCE EVERYWHERE IN THE MODEL BASED ON THE DEFAULT 
             CRITERION. PLEASE CHECK THE VALUE OF THE AVERAGE FORCE DURING THE 
             CURRENT ITERATION TO VERIFY THAT THE FORCE IS SMALL ENOUGH TO BE 
             TREATED AS ZERO. IF NOT, PLEASE USE THE SOLUTION CONTROLS TO RESET 
             THE CRITERION FOR ZERO FORCE.

 AVERAGE HEAT FLUX                  1.268E+05   TIME AVG. HEAT FLUX   1.249E+05
 LARGEST RESIDUAL HEAT FLUX         1.735E-18   AT NODE          2   DOF 11
   INSTANCE: PART-1-1                                                                        
 LARGEST INCREMENT OF TEMP.         1.500E-02   AT NODE          1   DOF 11
   INSTANCE: PART-1-1                                                                        
 LARGEST CORRECTION TO TEMP.        4.142E-10   AT NODE          2   DOF 11
   INSTANCE: PART-1-1                                                                        
          THE HEAT FLUX EQUILIBRIUM RESPONSE WAS LINEAR IN THIS INCREMENT

 MAXIMUM NON-PRESCRIBED INCREMENT IN TEMPERATURE IS   1.093E-09

 ITERATION SUMMARY FOR THE INCREMENT:   1 TOTAL ITERATIONS, OF WHICH
   0 ARE SEVERE DISCONTINUITY ITERATIONS AND  1 ARE EQUILIBRIUM ITERATIONS.

 TIME INCREMENT COMPLETED  1.000E-02,  FRACTION OF STEP COMPLETED  2.638E-02
 STEP TIME COMPLETED       2.638E-02,  TOTAL TIME COMPLETED        2.638E-02


  INCREMENT    18 STARTS. ATTEMPT NUMBER  1, TIME INCREMENT  1.000E-02
 
	UNSYMMETRIC NEW DIRECT SPARSE SOLVER RUNNING ON
 	1 HOST x 1 MPI RANK PER HOST x 1 THREAD PER RANK
        NUMBER OF EQUATIONS:  34
        NUMBER OF RHS:        1
        NUMBER OF FLOPS:      2.625e+04
        SOLVER ELAPSED TIME:  0ms

               CONVERGENCE CHECKS FOR EQUILIBRIUM ITERATION     1


 AVERAGE FORCE                      1.679E-09   TIME AVG. FORCE       1.000E-02
 LARGEST SCALED RESIDUAL FORCE      4.288E-09   AT NODE          9   DOF  3
   INSTANCE: PART-1-1                                                                        
  CORRESPONDING RESIDUAL FORCE      4.288E-09
 LARGEST INCREMENT OF DISP.         5.000E-04   AT NODE          2   DOF  3
   INSTANCE: PART-1-1                                                                        
 LARGEST CORRECTION TO DISP.        2.644E-14   AT NODE          9   DOF  3
   INSTANCE: PART-1-1                                                                        
          THERE IS ZERO FORCE     EVERYWHERE
 

 ***WARNING: THERE IS ZERO FORCE EVERYWHERE IN THE MODEL BASED ON THE DEFAULT 
             CRITERION. PLEASE CHECK THE VALUE OF THE AVERAGE FORCE DURING THE 
             CURRENT ITERATION TO VERIFY THAT THE FORCE IS SMALL ENOUGH TO BE 
             TREATED AS ZERO. IF NOT, PLEASE USE THE SOLUTION CONTROLS TO RESET 
             THE CRITERION FOR ZERO FORCE.

 AVERAGE HEAT FLUX                  1.268E+05   TIME AVG. HEAT FLUX   1.250E+05
 LARGEST RESIDUAL HEAT FLUX        -3.036E-18   AT NODE          2   DOF 11
   INSTANCE: PART-1-1                                                                        
 LARGEST INCREMENT OF TEMP.         1.500E-02   AT NODE          1   DOF 11
   INSTANCE: PART-1-1                                                                        
 LARGEST CORRECTION TO TEMP.        4.142E-10   AT NODE          2   DOF 11
   INSTANCE: PART-1-1                                                                        
          THE HEAT FLUX EQUILIBRIUM RESPONSE WAS LINEAR IN THIS INCREMENT

 MAXIMUM NON-PRESCRIBED INCREMENT IN TEMPERATURE IS   1.507E-09

 ITERATION SUMMARY FOR THE INCREMENT:   1 TOTAL ITERATIONS, OF WHICH
   0 ARE SEVERE DISCONTINUITY ITERATIONS AND  1 ARE EQUILIBRIUM ITERATIONS.

 TIME INCREMENT COMPLETED  1.000E-02,  FRACTION OF STEP COMPLETED  3.639E-02
 STEP TIME COMPLETED       3.639E-02,  TOTAL TIME COMPLETED        3.639E-02


  INCREMENT    19 STARTS. ATTEMPT NUMBER  1, TIME INCREMENT  1.000E-02
 
	UNSYMMETRIC NEW DIRECT SPARSE SOLVER RUNNING ON
 	1 HOST x 1 MPI RANK PER HOST x 1 THREAD PER RANK
        NUMBER OF EQUATIONS:  34
        NUMBER OF RHS:        1
        NUMBER OF FLOPS:      2.625e+04
        SOLVER ELAPSED TIME:  0ms

               CONVERGENCE CHECKS FOR EQUILIBRIUM ITERATION     1


 AVERAGE FORCE                      2.316E-09   TIME AVG. FORCE       1.000E-02
 LARGEST SCALED RESIDUAL FORCE      5.913E-09   AT NODE          9   DOF  3
   INSTANCE: PART-1-1                                                                        
  CORRESPONDING RESIDUAL FORCE      5.913E-09
 LARGEST INCREMENT OF DISP.         5.000E-04   AT NODE          2   DOF  3
   INSTANCE: PART-1-1                                                                        
 LARGEST CORRECTION TO DISP.        3.646E-14   AT NODE          9   DOF  3
   INSTANCE: PART-1-1                                                                        
          THERE IS ZERO FORCE     EVERYWHERE
 

 ***WARNING: THERE IS ZERO FORCE EVERYWHERE IN THE MODEL BASED ON THE DEFAULT 
             CRITERION. PLEASE CHECK THE VALUE OF THE AVERAGE FORCE DURING THE 
             CURRENT ITERATION TO VERIFY THAT THE FORCE IS SMALL ENOUGH TO BE 
             TREATED AS ZERO. IF NOT, PLEASE USE THE SOLUTION CONTROLS TO RESET 
             THE CRITERION FOR ZERO FORCE.

 AVERAGE HEAT FLUX                  1.268E+05   TIME AVG. HEAT FLUX   1.251E+05
 LARGEST RESIDUAL HEAT FLUX        -2.602E-18   AT NODE          2   DOF 11
   INSTANCE: PART-1-1                                                                        
 LARGEST INCREMENT OF TEMP.         1.500E-02   AT NODE          1   DOF 11
   INSTANCE: PART-1-1                                                                        
 LARGEST CORRECTION TO TEMP.        4.142E-10   AT NODE          2   DOF 11
   INSTANCE: PART-1-1                                                                        
          THE HEAT FLUX EQUILIBRIUM RESPONSE WAS LINEAR IN THIS INCREMENT

 MAXIMUM NON-PRESCRIBED INCREMENT IN TEMPERATURE IS   1.921E-09

 ITERATION SUMMARY FOR THE INCREMENT:   1 TOTAL ITERATIONS, OF WHICH
   0 ARE SEVERE DISCONTINUITY ITERATIONS AND  1 ARE EQUILIBRIUM ITERATIONS.

 TIME INCREMENT COMPLETED  1.000E-02,  FRACTION OF STEP COMPLETED  4.639E-02
 STEP TIME COMPLETED       4.639E-02,  TOTAL TIME COMPLETED        4.639E-02


  INCREMENT    20 STARTS. ATTEMPT NUMBER  1, TIME INCREMENT  1.000E-02
 
	UNSYMMETRIC NEW DIRECT SPARSE SOLVER RUNNING ON
 	1 HOST x 1 MPI RANK PER HOST x 1 THREAD PER RANK
        NUMBER OF EQUATIONS:  34
        NUMBER OF RHS:        1
        NUMBER OF FLOPS:      2.625e+04
        SOLVER ELAPSED TIME:  0ms

               CONVERGENCE CHECKS FOR EQUILIBRIUM ITERATION     1


 AVERAGE FORCE                      2.952E-09   TIME AVG. FORCE       1.000E-02
 LARGEST SCALED RESIDUAL FORCE      7.538E-09   AT NODE          9   DOF  3
   INSTANCE: PART-1-1                                                                        
  CORRESPONDING RESIDUAL FORCE      7.538E-09
 LARGEST INCREMENT OF DISP.         5.000E-04   AT NODE          2   DOF  3
   INSTANCE: PART-1-1                                                                        
 LARGEST CORRECTION TO DISP.        4.648E-14   AT NODE          5   DOF  3
   INSTANCE: PART-1-1                                                                        
          THERE IS ZERO FORCE     EVERYWHERE
 

 ***WARNING: THERE IS ZERO FORCE EVERYWHERE IN THE MODEL BASED ON THE DEFAULT 
             CRITERION. PLEASE CHECK THE VALUE OF THE AVERAGE FORCE DURING THE 
             CURRENT ITERATION TO VERIFY THAT THE FORCE IS SMALL ENOUGH TO BE 
             TREATED AS ZERO. IF NOT, PLEASE USE THE SOLUTION CONTROLS TO RESET 
             THE CRITERION FOR ZERO FORCE.

 AVERAGE HEAT FLUX                  1.268E+05   TIME AVG. HEAT FLUX   1.252E+05
 LARGEST RESIDUAL HEAT FLUX         5.204E-18   AT NODE          2   DOF 11
   INSTANCE: PART-1-1                                                                        
 LARGEST INCREMENT OF TEMP.         1.500E-02   AT NODE          1   DOF 11
   INSTANCE: PART-1-1                                                                        
 LARGEST CORRECTION TO TEMP.        4.142E-10   AT NODE          2   DOF 11
   INSTANCE: PART-1-1                                                                        
          THE HEAT FLUX EQUILIBRIUM RESPONSE WAS LINEAR IN THIS INCREMENT

 MAXIMUM NON-PRESCRIBED INCREMENT IN TEMPERATURE IS   2.335E-09

 ITERATION SUMMARY FOR THE INCREMENT:   1 TOTAL ITERATIONS, OF WHICH
   0 ARE SEVERE DISCONTINUITY ITERATIONS AND  1 ARE EQUILIBRIUM ITERATIONS.

 TIME INCREMENT COMPLETED  1.000E-02,  FRACTION OF STEP COMPLETED  5.639E-02
 STEP TIME COMPLETED       5.639E-02,  TOTAL TIME COMPLETED        5.639E-02


  INCREMENT    21 STARTS. ATTEMPT NUMBER  1, TIME INCREMENT  1.000E-02
 
	UNSYMMETRIC NEW DIRECT SPARSE SOLVER RUNNING ON
 	1 HOST x 1 MPI RANK PER HOST x 1 THREAD PER RANK
        NUMBER OF EQUATIONS:  34
        NUMBER OF RHS:        1
        NUMBER OF FLOPS:      2.625e+04
        SOLVER ELAPSED TIME:  0ms

               CONVERGENCE CHECKS FOR EQUILIBRIUM ITERATION     1


 AVERAGE FORCE                      3.589E-09   TIME AVG. FORCE       1.000E-02
 LARGEST SCALED RESIDUAL FORCE      9.163E-09   AT NODE          9   DOF  3
   INSTANCE: PART-1-1                                                                        
  CORRESPONDING RESIDUAL FORCE      9.163E-09
 LARGEST INCREMENT OF DISP.         5.000E-04   AT NODE          2   DOF  3
   INSTANCE: PART-1-1                                                                        
 LARGEST CORRECTION TO DISP.        5.650E-14   AT NODE          9   DOF  3
   INSTANCE: PART-1-1                                                                        
          THERE IS ZERO FORCE     EVERYWHERE
 

 ***WARNING: THERE IS ZERO FORCE EVERYWHERE IN THE MODEL BASED ON THE DEFAULT 
             CRITERION. PLEASE CHECK THE VALUE OF THE AVERAGE FORCE DURING THE 
             CURRENT ITERATION TO VERIFY THAT THE FORCE IS SMALL ENOUGH TO BE 
             TREATED AS ZERO. IF NOT, PLEASE USE THE SOLUTION CONTROLS TO RESET 
             THE CRITERION FOR ZERO FORCE.

 AVERAGE HEAT FLUX                  1.268E+05   TIME AVG. HEAT FLUX   1.252E+05
 LARGEST RESIDUAL HEAT FLUX        -5.204E-18   AT NODE          2   DOF 11
   INSTANCE: PART-1-1                                                                        
 LARGEST INCREMENT OF TEMP.         1.500E-02   AT NODE          1   DOF 11
   INSTANCE: PART-1-1                                                                        
 LARGEST CORRECTION TO TEMP.        4.142E-10   AT NODE          2   DOF 11
   INSTANCE: PART-1-1                                                                        
          THE HEAT FLUX EQUILIBRIUM RESPONSE WAS LINEAR IN THIS INCREMENT

 MAXIMUM NON-PRESCRIBED INCREMENT IN TEMPERATURE IS   2.750E-09

 ITERATION SUMMARY FOR THE INCREMENT:   1 TOTAL ITERATIONS, OF WHICH
   0 ARE SEVERE DISCONTINUITY ITERATIONS AND  1 ARE EQUILIBRIUM ITERATIONS.

 TIME INCREMENT COMPLETED  1.000E-02,  FRACTION OF STEP COMPLETED  6.638E-02
 STEP TIME COMPLETED       6.638E-02,  TOTAL TIME COMPLETED        6.638E-02


  INCREMENT    22 STARTS. ATTEMPT NUMBER  1, TIME INCREMENT  1.000E-02
 
	UNSYMMETRIC NEW DIRECT SPARSE SOLVER RUNNING ON
 	1 HOST x 1 MPI RANK PER HOST x 1 THREAD PER RANK
        NUMBER OF EQUATIONS:  34
        NUMBER OF RHS:        1
        NUMBER OF FLOPS:      2.625e+04
        SOLVER ELAPSED TIME:  0ms

               CONVERGENCE CHECKS FOR EQUILIBRIUM ITERATION     1


 AVERAGE FORCE                      4.225E-09   TIME AVG. FORCE       1.000E-02
 LARGEST SCALED RESIDUAL FORCE      1.079E-08   AT NODE          9   DOF  3
   INSTANCE: PART-1-1                                                                        
  CORRESPONDING RESIDUAL FORCE      1.079E-08
 LARGEST INCREMENT OF DISP.         5.000E-04   AT NODE          2   DOF  3
   INSTANCE: PART-1-1                                                                        
 LARGEST CORRECTION TO DISP.        6.652E-14   AT NODE          5   DOF  3
   INSTANCE: PART-1-1                                                                        
          THERE IS ZERO FORCE     EVERYWHERE
 

 ***WARNING: THERE IS ZERO FORCE EVERYWHERE IN THE MODEL BASED ON THE DEFAULT 
             CRITERION. PLEASE CHECK THE VALUE OF THE AVERAGE FORCE DURING THE 
             CURRENT ITERATION TO VERIFY THAT THE FORCE IS SMALL ENOUGH TO BE 
             TREATED AS ZERO. IF NOT, PLEASE USE THE SOLUTION CONTROLS TO RESET 
             THE CRITERION FOR ZERO FORCE.

 AVERAGE HEAT FLUX                  1.268E+05   TIME AVG. HEAT FLUX   1.253E+05
 LARGEST RESIDUAL HEAT FLUX          0.00       AT NODE          2   DOF 11
   INSTANCE: PART-1-1                                                                        
 LARGEST INCREMENT OF TEMP.         1.500E-02   AT NODE          1   DOF 11
   INSTANCE: PART-1-1                                                                        
 LARGEST CORRECTION TO TEMP.        4.142E-10   AT NODE          2   DOF 11
   INSTANCE: PART-1-1                                                                        
          THE HEAT FLUX EQUILIBRIUM RESPONSE WAS LINEAR IN THIS INCREMENT

 MAXIMUM NON-PRESCRIBED INCREMENT IN TEMPERATURE IS   3.164E-09

 ITERATION SUMMARY FOR THE INCREMENT:   1 TOTAL ITERATIONS, OF WHICH
   0 ARE SEVERE DISCONTINUITY ITERATIONS AND  1 ARE EQUILIBRIUM ITERATIONS.

 TIME INCREMENT COMPLETED  1.000E-02,  FRACTION OF STEP COMPLETED  7.638E-02
 STEP TIME COMPLETED       7.638E-02,  TOTAL TIME COMPLETED        7.638E-02


  INCREMENT    23 STARTS. ATTEMPT NUMBER  1, TIME INCREMENT  1.000E-02
 
	UNSYMMETRIC NEW DIRECT SPARSE SOLVER RUNNING ON
 	1 HOST x 1 MPI RANK PER HOST x 1 THREAD PER RANK
        NUMBER OF EQUATIONS:  34
        NUMBER OF RHS:        1
        NUMBER OF FLOPS:      2.625e+04
        SOLVER ELAPSED TIME:  0ms

               CONVERGENCE CHECKS FOR EQUILIBRIUM ITERATION     1


 AVERAGE FORCE                      4.862E-09   TIME AVG. FORCE       1.000E-02
 LARGEST SCALED RESIDUAL FORCE      1.241E-08   AT NODE          9   DOF  3
   INSTANCE: PART-1-1                                                                        
  CORRESPONDING RESIDUAL FORCE      1.241E-08
 LARGEST INCREMENT OF DISP.         5.000E-04   AT NODE          2   DOF  3
   INSTANCE: PART-1-1                                                                        
 LARGEST CORRECTION TO DISP.        7.654E-14   AT NODE          5   DOF  3
   INSTANCE: PART-1-1                                                                        
          THERE IS ZERO FORCE     EVERYWHERE
 

 ***WARNING: THERE IS ZERO FORCE EVERYWHERE IN THE MODEL BASED ON THE DEFAULT 
             CRITERION. PLEASE CHECK THE VALUE OF THE AVERAGE FORCE DURING THE 
             CURRENT ITERATION TO VERIFY THAT THE FORCE IS SMALL ENOUGH TO BE 
             TREATED AS ZERO. IF NOT, PLEASE USE THE SOLUTION CONTROLS TO RESET 
             THE CRITERION FOR ZERO FORCE.

 AVERAGE HEAT FLUX                  1.268E+05   TIME AVG. HEAT FLUX   1.254E+05
 LARGEST RESIDUAL HEAT FLUX        -4.337E-18   AT NODE          2   DOF 11
   INSTANCE: PART-1-1                                                                        
 LARGEST INCREMENT OF TEMP.         1.500E-02   AT NODE          1   DOF 11
   INSTANCE: PART-1-1                                                                        
 LARGEST CORRECTION TO TEMP.        4.142E-10   AT NODE          2   DOF 11
   INSTANCE: PART-1-1                                                                        
          THE HEAT FLUX EQUILIBRIUM RESPONSE WAS LINEAR IN THIS INCREMENT

 MAXIMUM NON-PRESCRIBED INCREMENT IN TEMPERATURE IS   3.578E-09

 ITERATION SUMMARY FOR THE INCREMENT:   1 TOTAL ITERATIONS, OF WHICH
   0 ARE SEVERE DISCONTINUITY ITERATIONS AND  1 ARE EQUILIBRIUM ITERATIONS.

 TIME INCREMENT COMPLETED  1.000E-02,  FRACTION OF STEP COMPLETED  8.638E-02
 STEP TIME COMPLETED       8.638E-02,  TOTAL TIME COMPLETED        8.638E-02


  INCREMENT    24 STARTS. ATTEMPT NUMBER  1, TIME INCREMENT  1.000E-02
 
	UNSYMMETRIC NEW DIRECT SPARSE SOLVER RUNNING ON
 	1 HOST x 1 MPI RANK PER HOST x 1 THREAD PER RANK
        NUMBER OF EQUATIONS:  34
        NUMBER OF RHS:        1
        NUMBER OF FLOPS:      2.625e+04
        SOLVER ELAPSED TIME:  0ms

               CONVERGENCE CHECKS FOR EQUILIBRIUM ITERATION     1


 AVERAGE FORCE                      5.498E-09   TIME AVG. FORCE       1.000E-02
 LARGEST SCALED RESIDUAL FORCE      1.404E-08   AT NODE          9   DOF  3
   INSTANCE: PART-1-1                                                                        
  CORRESPONDING RESIDUAL FORCE      1.404E-08
 LARGEST INCREMENT OF DISP.         5.000E-04   AT NODE          2   DOF  3
   INSTANCE: PART-1-1                                                                        
 LARGEST CORRECTION TO DISP.        8.656E-14   AT NODE          9   DOF  3
   INSTANCE: PART-1-1                                                                        
          THERE IS ZERO FORCE     EVERYWHERE
 

 ***WARNING: THERE IS ZERO FORCE EVERYWHERE IN THE MODEL BASED ON THE DEFAULT 
             CRITERION. PLEASE CHECK THE VALUE OF THE AVERAGE FORCE DURING THE 
             CURRENT ITERATION TO VERIFY THAT THE FORCE IS SMALL ENOUGH TO BE 
             TREATED AS ZERO. IF NOT, PLEASE USE THE SOLUTION CONTROLS TO RESET 
             THE CRITERION FOR ZERO FORCE.

 AVERAGE HEAT FLUX                  1.268E+05   TIME AVG. HEAT FLUX   1.254E+05
 LARGEST RESIDUAL HEAT FLUX        -5.204E-18   AT NODE          2   DOF 11
   INSTANCE: PART-1-1                                                                        
 LARGEST INCREMENT OF TEMP.         1.500E-02   AT NODE          1   DOF 11
   INSTANCE: PART-1-1                                                                        
 LARGEST CORRECTION TO TEMP.        4.142E-10   AT NODE          2   DOF 11
   INSTANCE: PART-1-1                                                                        
          THE HEAT FLUX EQUILIBRIUM RESPONSE WAS LINEAR IN THIS INCREMENT

 MAXIMUM NON-PRESCRIBED INCREMENT IN TEMPERATURE IS   3.992E-09

 ITERATION SUMMARY FOR THE INCREMENT:   1 TOTAL ITERATIONS, OF WHICH
   0 ARE SEVERE DISCONTINUITY ITERATIONS AND  1 ARE EQUILIBRIUM ITERATIONS.

 TIME INCREMENT COMPLETED  1.000E-02,  FRACTION OF STEP COMPLETED  9.638E-02
 STEP TIME COMPLETED       9.638E-02,  TOTAL TIME COMPLETED        9.638E-02


  INCREMENT    25 STARTS. ATTEMPT NUMBER  1, TIME INCREMENT  1.000E-02
 
	UNSYMMETRIC NEW DIRECT SPARSE SOLVER RUNNING ON
 	1 HOST x 1 MPI RANK PER HOST x 1 THREAD PER RANK
        NUMBER OF EQUATIONS:  34
        NUMBER OF RHS:        1
        NUMBER OF FLOPS:      2.625e+04
        SOLVER ELAPSED TIME:  0ms

               CONVERGENCE CHECKS FOR EQUILIBRIUM ITERATION     1


 AVERAGE FORCE                      6.135E-09   TIME AVG. FORCE       1.000E-02
 LARGEST SCALED RESIDUAL FORCE      1.566E-08   AT NODE          9   DOF  3
   INSTANCE: PART-1-1                                                                        
  CORRESPONDING RESIDUAL FORCE      1.566E-08
 LARGEST INCREMENT OF DISP.         5.000E-04   AT NODE          2   DOF  3
   INSTANCE: PART-1-1                                                                        
 LARGEST CORRECTION TO DISP.        9.658E-14   AT NODE          5   DOF  3
   INSTANCE: PART-1-1                                                                        
          THERE IS ZERO FORCE     EVERYWHERE
 

 ***WARNING: THERE IS ZERO FORCE EVERYWHERE IN THE MODEL BASED ON THE DEFAULT 
             CRITERION. PLEASE CHECK THE VALUE OF THE AVERAGE FORCE DURING THE 
             CURRENT ITERATION TO VERIFY THAT THE FORCE IS SMALL ENOUGH TO BE 
             TREATED AS ZERO. IF NOT, PLEASE USE THE SOLUTION CONTROLS TO RESET 
             THE CRITERION FOR ZERO FORCE.

 AVERAGE HEAT FLUX                  1.268E+05   TIME AVG. HEAT FLUX   1.255E+05
 LARGEST RESIDUAL HEAT FLUX        -8.674E-18   AT NODE          2   DOF 11
   INSTANCE: PART-1-1                                                                        
 LARGEST INCREMENT OF TEMP.         1.500E-02   AT NODE          1   DOF 11
   INSTANCE: PART-1-1                                                                        
 LARGEST CORRECTION TO TEMP.        4.142E-10   AT NODE          2   DOF 11
   INSTANCE: PART-1-1                                                                        
          THE HEAT FLUX EQUILIBRIUM RESPONSE WAS LINEAR IN THIS INCREMENT

 MAXIMUM NON-PRESCRIBED INCREMENT IN TEMPERATURE IS   4.406E-09

 ITERATION SUMMARY FOR THE INCREMENT:   1 TOTAL ITERATIONS, OF WHICH
   0 ARE SEVERE DISCONTINUITY ITERATIONS AND  1 ARE EQUILIBRIUM ITERATIONS.

 TIME INCREMENT COMPLETED  1.000E-02,  FRACTION OF STEP COMPLETED  0.106    
 STEP TIME COMPLETED       0.106    ,  TOTAL TIME COMPLETED        0.106    


  INCREMENT    26 STARTS. ATTEMPT NUMBER  1, TIME INCREMENT  1.000E-02
 
	UNSYMMETRIC NEW DIRECT SPARSE SOLVER RUNNING ON
 	1 HOST x 1 MPI RANK PER HOST x 1 THREAD PER RANK
        NUMBER OF EQUATIONS:  34
        NUMBER OF RHS:        1
        NUMBER OF FLOPS:      2.625e+04
        SOLVER ELAPSED TIME:  0ms

               CONVERGENCE CHECKS FOR EQUILIBRIUM ITERATION     1


 AVERAGE FORCE                      6.771E-09   TIME AVG. FORCE       1.000E-02
 LARGEST SCALED RESIDUAL FORCE      1.729E-08   AT NODE          9   DOF  3
   INSTANCE: PART-1-1                                                                        
  CORRESPONDING RESIDUAL FORCE      1.729E-08
 LARGEST INCREMENT OF DISP.         5.000E-04   AT NODE          2   DOF  3
   INSTANCE: PART-1-1                                                                        
 LARGEST CORRECTION TO DISP.        1.066E-13   AT NODE          5   DOF  3
   INSTANCE: PART-1-1                                                                        
          THERE IS ZERO FORCE     EVERYWHERE
 

 ***WARNING: THERE IS ZERO FORCE EVERYWHERE IN THE MODEL BASED ON THE DEFAULT 
             CRITERION. PLEASE CHECK THE VALUE OF THE AVERAGE FORCE DURING THE 
             CURRENT ITERATION TO VERIFY THAT THE FORCE IS SMALL ENOUGH TO BE 
             TREATED AS ZERO. IF NOT, PLEASE USE THE SOLUTION CONTROLS TO RESET 
             THE CRITERION FOR ZERO FORCE.

 AVERAGE HEAT FLUX                  1.268E+05   TIME AVG. HEAT FLUX   1.255E+05
 LARGEST RESIDUAL HEAT FLUX         1.735E-18   AT NODE          2   DOF 11
   INSTANCE: PART-1-1                                                                        
 LARGEST INCREMENT OF TEMP.         1.500E-02   AT NODE          1   DOF 11
   INSTANCE: PART-1-1                                                                        
 LARGEST CORRECTION TO TEMP.        4.142E-10   AT NODE          2   DOF 11
   INSTANCE: PART-1-1                                                                        
          THE HEAT FLUX EQUILIBRIUM RESPONSE WAS LINEAR IN THIS INCREMENT

 MAXIMUM NON-PRESCRIBED INCREMENT IN TEMPERATURE IS   4.821E-09

 ITERATION SUMMARY FOR THE INCREMENT:   1 TOTAL ITERATIONS, OF WHICH
   0 ARE SEVERE DISCONTINUITY ITERATIONS AND  1 ARE EQUILIBRIUM ITERATIONS.

 TIME INCREMENT COMPLETED  1.000E-02,  FRACTION OF STEP COMPLETED  0.116    
 STEP TIME COMPLETED       0.116    ,  TOTAL TIME COMPLETED        0.116    


  INCREMENT    27 STARTS. ATTEMPT NUMBER  1, TIME INCREMENT  1.000E-02
 
	UNSYMMETRIC NEW DIRECT SPARSE SOLVER RUNNING ON
 	1 HOST x 1 MPI RANK PER HOST x 1 THREAD PER RANK
        NUMBER OF EQUATIONS:  34
        NUMBER OF RHS:        1
        NUMBER OF FLOPS:      2.625e+04
        SOLVER ELAPSED TIME:  0ms

               CONVERGENCE CHECKS FOR EQUILIBRIUM ITERATION     1


 AVERAGE FORCE                      7.407E-09   TIME AVG. FORCE       1.000E-02
 LARGEST SCALED RESIDUAL FORCE      1.891E-08   AT NODE          9   DOF  3
   INSTANCE: PART-1-1                                                                        
  CORRESPONDING RESIDUAL FORCE      1.891E-08
 LARGEST INCREMENT OF DISP.         5.000E-04   AT NODE          2   DOF  3
   INSTANCE: PART-1-1                                                                        
 LARGEST CORRECTION TO DISP.        1.166E-13   AT NODE          5   DOF  3
   INSTANCE: PART-1-1                                                                        
          THERE IS ZERO FORCE     EVERYWHERE
 

 ***WARNING: THERE IS ZERO FORCE EVERYWHERE IN THE MODEL BASED ON THE DEFAULT 
             CRITERION. PLEASE CHECK THE VALUE OF THE AVERAGE FORCE DURING THE 
             CURRENT ITERATION TO VERIFY THAT THE FORCE IS SMALL ENOUGH TO BE 
             TREATED AS ZERO. IF NOT, PLEASE USE THE SOLUTION CONTROLS TO RESET 
             THE CRITERION FOR ZERO FORCE.

 AVERAGE HEAT FLUX                  1.268E+05   TIME AVG. HEAT FLUX   1.256E+05
 LARGEST RESIDUAL HEAT FLUX        -3.469E-18   AT NODE          2   DOF 11
   INSTANCE: PART-1-1                                                                        
 LARGEST INCREMENT OF TEMP.         1.500E-02   AT NODE          1   DOF 11
   INSTANCE: PART-1-1                                                                        
 LARGEST CORRECTION TO TEMP.        4.142E-10   AT NODE          2   DOF 11
   INSTANCE: PART-1-1                                                                        
          THE HEAT FLUX EQUILIBRIUM RESPONSE WAS LINEAR IN THIS INCREMENT

 MAXIMUM NON-PRESCRIBED INCREMENT IN TEMPERATURE IS   5.235E-09

 ITERATION SUMMARY FOR THE INCREMENT:   1 TOTAL ITERATIONS, OF WHICH
   0 ARE SEVERE DISCONTINUITY ITERATIONS AND  1 ARE EQUILIBRIUM ITERATIONS.

 TIME INCREMENT COMPLETED  1.000E-02,  FRACTION OF STEP COMPLETED  0.126    
 STEP TIME COMPLETED       0.126    ,  TOTAL TIME COMPLETED        0.126    


  INCREMENT    28 STARTS. ATTEMPT NUMBER  1, TIME INCREMENT  1.000E-02
 
	UNSYMMETRIC NEW DIRECT SPARSE SOLVER RUNNING ON
 	1 HOST x 1 MPI RANK PER HOST x 1 THREAD PER RANK
        NUMBER OF EQUATIONS:  34
        NUMBER OF RHS:        1
        NUMBER OF FLOPS:      2.625e+04
        SOLVER ELAPSED TIME:  0ms

               CONVERGENCE CHECKS FOR EQUILIBRIUM ITERATION     1


 AVERAGE FORCE                      8.044E-09   TIME AVG. FORCE       1.000E-02
 LARGEST SCALED RESIDUAL FORCE      2.054E-08   AT NODE          9   DOF  3
   INSTANCE: PART-1-1                                                                        
  CORRESPONDING RESIDUAL FORCE      2.054E-08
 LARGEST INCREMENT OF DISP.         5.000E-04   AT NODE          2   DOF  3
   INSTANCE: PART-1-1                                                                        
 LARGEST CORRECTION TO DISP.        1.266E-13   AT NODE          5   DOF  3
   INSTANCE: PART-1-1                                                                        
          THERE IS ZERO FORCE     EVERYWHERE
 

 ***WARNING: THERE IS ZERO FORCE EVERYWHERE IN THE MODEL BASED ON THE DEFAULT 
             CRITERION. PLEASE CHECK THE VALUE OF THE AVERAGE FORCE DURING THE 
             CURRENT ITERATION TO VERIFY THAT THE FORCE IS SMALL ENOUGH TO BE 
             TREATED AS ZERO. IF NOT, PLEASE USE THE SOLUTION CONTROLS TO RESET 
             THE CRITERION FOR ZERO FORCE.

 AVERAGE HEAT FLUX                  1.268E+05   TIME AVG. HEAT FLUX   1.256E+05
 LARGEST RESIDUAL HEAT FLUX        -1.735E-18   AT NODE          2   DOF 11
   INSTANCE: PART-1-1                                                                        
 LARGEST INCREMENT OF TEMP.         1.500E-02   AT NODE          1   DOF 11
   INSTANCE: PART-1-1                                                                        
 LARGEST CORRECTION TO TEMP.        4.142E-10   AT NODE          2   DOF 11
   INSTANCE: PART-1-1                                                                        
          THE HEAT FLUX EQUILIBRIUM RESPONSE WAS LINEAR IN THIS INCREMENT

 MAXIMUM NON-PRESCRIBED INCREMENT IN TEMPERATURE IS   5.649E-09

 ITERATION SUMMARY FOR THE INCREMENT:   1 TOTAL ITERATIONS, OF WHICH
   0 ARE SEVERE DISCONTINUITY ITERATIONS AND  1 ARE EQUILIBRIUM ITERATIONS.

 TIME INCREMENT COMPLETED  1.000E-02,  FRACTION OF STEP COMPLETED  0.136    
 STEP TIME COMPLETED       0.136    ,  TOTAL TIME COMPLETED        0.136    


  INCREMENT    29 STARTS. ATTEMPT NUMBER  1, TIME INCREMENT  1.000E-02
 
	UNSYMMETRIC NEW DIRECT SPARSE SOLVER RUNNING ON
 	1 HOST x 1 MPI RANK PER HOST x 1 THREAD PER RANK
        NUMBER OF EQUATIONS:  34
        NUMBER OF RHS:        1
        NUMBER OF FLOPS:      2.625e+04
        SOLVER ELAPSED TIME:  0ms

               CONVERGENCE CHECKS FOR EQUILIBRIUM ITERATION     1


 AVERAGE FORCE                      8.680E-09   TIME AVG. FORCE       1.000E-02
 LARGEST SCALED RESIDUAL FORCE      2.216E-08   AT NODE          9   DOF  3
   INSTANCE: PART-1-1                                                                        
  CORRESPONDING RESIDUAL FORCE      2.216E-08
 LARGEST INCREMENT OF DISP.         5.000E-04   AT NODE          2   DOF  3
   INSTANCE: PART-1-1                                                                        
 LARGEST CORRECTION TO DISP.        1.367E-13   AT NODE          5   DOF  3
   INSTANCE: PART-1-1                                                                        
          THERE IS ZERO FORCE     EVERYWHERE
 

 ***WARNING: THERE IS ZERO FORCE EVERYWHERE IN THE MODEL BASED ON THE DEFAULT 
             CRITERION. PLEASE CHECK THE VALUE OF THE AVERAGE FORCE DURING THE 
             CURRENT ITERATION TO VERIFY THAT THE FORCE IS SMALL ENOUGH TO BE 
             TREATED AS ZERO. IF NOT, PLEASE USE THE SOLUTION CONTROLS TO RESET 
             THE CRITERION FOR ZERO FORCE.

 AVERAGE HEAT FLUX                  1.268E+05   TIME AVG. HEAT FLUX   1.257E+05
 LARGEST RESIDUAL HEAT FLUX         1.214E-17   AT NODE          2   DOF 11
   INSTANCE: PART-1-1                                                                        
 LARGEST INCREMENT OF TEMP.         1.500E-02   AT NODE          1   DOF 11
   INSTANCE: PART-1-1                                                                        
 LARGEST CORRECTION TO TEMP.        4.142E-10   AT NODE          2   DOF 11
   INSTANCE: PART-1-1                                                                        
          THE HEAT FLUX EQUILIBRIUM RESPONSE WAS LINEAR IN THIS INCREMENT

 MAXIMUM NON-PRESCRIBED INCREMENT IN TEMPERATURE IS   6.063E-09

 ITERATION SUMMARY FOR THE INCREMENT:   1 TOTAL ITERATIONS, OF WHICH
   0 ARE SEVERE DISCONTINUITY ITERATIONS AND  1 ARE EQUILIBRIUM ITERATIONS.

 TIME INCREMENT COMPLETED  1.000E-02,  FRACTION OF STEP COMPLETED  0.146    
 STEP TIME COMPLETED       0.146    ,  TOTAL TIME COMPLETED        0.146    


  INCREMENT    30 STARTS. ATTEMPT NUMBER  1, TIME INCREMENT  1.000E-02
 
	UNSYMMETRIC NEW DIRECT SPARSE SOLVER RUNNING ON
 	1 HOST x 1 MPI RANK PER HOST x 1 THREAD PER RANK
        NUMBER OF EQUATIONS:  34
        NUMBER OF RHS:        1
        NUMBER OF FLOPS:      2.625e+04
        SOLVER ELAPSED TIME:  0ms

               CONVERGENCE CHECKS FOR EQUILIBRIUM ITERATION     1


 AVERAGE FORCE                      9.317E-09   TIME AVG. FORCE       1.000E-02
 LARGEST SCALED RESIDUAL FORCE      2.379E-08   AT NODE          9   DOF  3
   INSTANCE: PART-1-1                                                                        
  CORRESPONDING RESIDUAL FORCE      2.379E-08
 LARGEST INCREMENT OF DISP.         5.000E-04   AT NODE          2   DOF  3
   INSTANCE: PART-1-1                                                                        
 LARGEST CORRECTION TO DISP.        1.467E-13   AT NODE          9   DOF  3
   INSTANCE: PART-1-1                                                                        
          THERE IS ZERO FORCE     EVERYWHERE
 

 ***WARNING: THERE IS ZERO FORCE EVERYWHERE IN THE MODEL BASED ON THE DEFAULT 
             CRITERION. PLEASE CHECK THE VALUE OF THE AVERAGE FORCE DURING THE 
             CURRENT ITERATION TO VERIFY THAT THE FORCE IS SMALL ENOUGH TO BE 
             TREATED AS ZERO. IF NOT, PLEASE USE THE SOLUTION CONTROLS TO RESET 
             THE CRITERION FOR ZERO FORCE.

[...]
 	1 HOST x 1 MPI RANK PER HOST x 1 THREAD PER RANK
        NUMBER OF EQUATIONS:  34
        NUMBER OF RHS:        1
        NUMBER OF FLOPS:      2.625e+04
        SOLVER ELAPSED TIME:  0ms

               CONVERGENCE CHECKS FOR EQUILIBRIUM ITERATION     1


 AVERAGE FORCE                      5.832E-08   TIME AVG. FORCE       1.000E-02
 LARGEST SCALED RESIDUAL FORCE      1.489E-07   AT NODE          9   DOF  3
   INSTANCE: PART-1-1                                                                        
  CORRESPONDING RESIDUAL FORCE      1.489E-07
 LARGEST INCREMENT OF DISP.         5.000E-04   AT NODE          2   DOF  3
   INSTANCE: PART-1-1                                                                        
 LARGEST CORRECTION TO DISP.        9.182E-13   AT NODE          9   DOF  3
   INSTANCE: PART-1-1                                                                        
          ALL DISP.    CORRECTIONS ARE ZERO

 AVERAGE HEAT FLUX                  1.268E+05   TIME AVG. HEAT FLUX   1.265E+05
 LARGEST RESIDUAL HEAT FLUX         9.714E-17   AT NODE          2   DOF 11
   INSTANCE: PART-1-1                                                                        
 LARGEST INCREMENT OF TEMP.         1.500E-02   AT NODE          1   DOF 11
   INSTANCE: PART-1-1                                                                        
 LARGEST CORRECTION TO TEMP.        4.142E-10   AT NODE          2   DOF 11
   INSTANCE: PART-1-1                                                                        
          THE HEAT FLUX EQUILIBRIUM RESPONSE WAS LINEAR IN THIS INCREMENT

 MAXIMUM NON-PRESCRIBED INCREMENT IN TEMPERATURE IS   3.837E-08

 ITERATION SUMMARY FOR THE INCREMENT:   1 TOTAL ITERATIONS, OF WHICH
   0 ARE SEVERE DISCONTINUITY ITERATIONS AND  1 ARE EQUILIBRIUM ITERATIONS.

 TIME INCREMENT COMPLETED  1.000E-02,  FRACTION OF STEP COMPLETED  0.926    
 STEP TIME COMPLETED       0.926    ,  TOTAL TIME COMPLETED        0.926    


  INCREMENT   108 STARTS. ATTEMPT NUMBER  1, TIME INCREMENT  1.000E-02
 
	UNSYMMETRIC NEW DIRECT SPARSE SOLVER RUNNING ON
 	1 HOST x 1 MPI RANK PER HOST x 1 THREAD PER RANK
        NUMBER OF EQUATIONS:  34
        NUMBER OF RHS:        1
        NUMBER OF FLOPS:      2.625e+04
        SOLVER ELAPSED TIME:  0ms

               CONVERGENCE CHECKS FOR EQUILIBRIUM ITERATION     1


 AVERAGE FORCE                      5.896E-08   TIME AVG. FORCE       1.000E-02
 LARGEST SCALED RESIDUAL FORCE      1.505E-07   AT NODE          9   DOF  3
   INSTANCE: PART-1-1                                                                        
  CORRESPONDING RESIDUAL FORCE      1.505E-07
 LARGEST INCREMENT OF DISP.         5.000E-04   AT NODE          2   DOF  3
   INSTANCE: PART-1-1                                                                        
 LARGEST CORRECTION TO DISP.        9.283E-13   AT NODE          9   DOF  3
   INSTANCE: PART-1-1                                                                        
          ALL DISP.    CORRECTIONS ARE ZERO

 AVERAGE HEAT FLUX                  1.268E+05   TIME AVG. HEAT FLUX   1.265E+05
 LARGEST RESIDUAL HEAT FLUX        -1.110E-16   AT NODE          2   DOF 11
   INSTANCE: PART-1-1                                                                        
 LARGEST INCREMENT OF TEMP.         1.500E-02   AT NODE          1   DOF 11
   INSTANCE: PART-1-1                                                                        
 LARGEST CORRECTION TO TEMP.        4.142E-10   AT NODE          2   DOF 11
   INSTANCE: PART-1-1                                                                        
          THE HEAT FLUX EQUILIBRIUM RESPONSE WAS LINEAR IN THIS INCREMENT

 MAXIMUM NON-PRESCRIBED INCREMENT IN TEMPERATURE IS   3.879E-08

 ITERATION SUMMARY FOR THE INCREMENT:   1 TOTAL ITERATIONS, OF WHICH
   0 ARE SEVERE DISCONTINUITY ITERATIONS AND  1 ARE EQUILIBRIUM ITERATIONS.

 TIME INCREMENT COMPLETED  1.000E-02,  FRACTION OF STEP COMPLETED  0.936    
 STEP TIME COMPLETED       0.936    ,  TOTAL TIME COMPLETED        0.936    


  INCREMENT   109 STARTS. ATTEMPT NUMBER  1, TIME INCREMENT  1.000E-02
 
	UNSYMMETRIC NEW DIRECT SPARSE SOLVER RUNNING ON
 	1 HOST x 1 MPI RANK PER HOST x 1 THREAD PER RANK
        NUMBER OF EQUATIONS:  34
        NUMBER OF RHS:        1
        NUMBER OF FLOPS:      2.625e+04
        SOLVER ELAPSED TIME:  0ms

               CONVERGENCE CHECKS FOR EQUILIBRIUM ITERATION     1


 AVERAGE FORCE                      5.960E-08   TIME AVG. FORCE       1.000E-02
 LARGEST SCALED RESIDUAL FORCE      1.522E-07   AT NODE          9   DOF  3
   INSTANCE: PART-1-1                                                                        
  CORRESPONDING RESIDUAL FORCE      1.522E-07
 LARGEST INCREMENT OF DISP.         5.000E-04   AT NODE          2   DOF  3
   INSTANCE: PART-1-1                                                                        
 LARGEST CORRECTION TO DISP.        9.383E-13   AT NODE          9   DOF  3
   INSTANCE: PART-1-1                                                                        
          ALL DISP.    CORRECTIONS ARE ZERO

 AVERAGE HEAT FLUX                  1.268E+05   TIME AVG. HEAT FLUX   1.265E+05
 LARGEST RESIDUAL HEAT FLUX         1.527E-16   AT NODE          2   DOF 11
   INSTANCE: PART-1-1                                                                        
 LARGEST INCREMENT OF TEMP.         1.500E-02   AT NODE          1   DOF 11
   INSTANCE: PART-1-1                                                                        
 LARGEST CORRECTION TO TEMP.        4.142E-10   AT NODE          2   DOF 11
   INSTANCE: PART-1-1                                                                        
          THE HEAT FLUX EQUILIBRIUM RESPONSE WAS LINEAR IN THIS INCREMENT

 MAXIMUM NON-PRESCRIBED INCREMENT IN TEMPERATURE IS   3.920E-08

 ITERATION SUMMARY FOR THE INCREMENT:   1 TOTAL ITERATIONS, OF WHICH
   0 ARE SEVERE DISCONTINUITY ITERATIONS AND  1 ARE EQUILIBRIUM ITERATIONS.

 TIME INCREMENT COMPLETED  1.000E-02,  FRACTION OF STEP COMPLETED  0.946    
 STEP TIME COMPLETED       0.946    ,  TOTAL TIME COMPLETED        0.946    


  INCREMENT   110 STARTS. ATTEMPT NUMBER  1, TIME INCREMENT  1.000E-02
 
	UNSYMMETRIC NEW DIRECT SPARSE SOLVER RUNNING ON
 	1 HOST x 1 MPI RANK PER HOST x 1 THREAD PER RANK
        NUMBER OF EQUATIONS:  34
        NUMBER OF RHS:        1
        NUMBER OF FLOPS:      2.625e+04
        SOLVER ELAPSED TIME:  0ms

               CONVERGENCE CHECKS FOR EQUILIBRIUM ITERATION     1


 AVERAGE FORCE                      6.023E-08   TIME AVG. FORCE       1.000E-02
 LARGEST SCALED RESIDUAL FORCE      1.538E-07   AT NODE          9   DOF  3
   INSTANCE: PART-1-1                                                                        
  CORRESPONDING RESIDUAL FORCE      1.538E-07
 LARGEST INCREMENT OF DISP.         5.000E-04   AT NODE          2   DOF  3
   INSTANCE: PART-1-1                                                                        
 LARGEST CORRECTION TO DISP.        9.483E-13   AT NODE          9   DOF  3
   INSTANCE: PART-1-1                                                                        
          ALL DISP.    CORRECTIONS ARE ZERO

 AVERAGE HEAT FLUX                  1.268E+05   TIME AVG. HEAT FLUX   1.265E+05
 LARGEST RESIDUAL HEAT FLUX        -1.110E-16   AT NODE          2   DOF 11
   INSTANCE: PART-1-1                                                                        
 LARGEST INCREMENT OF TEMP.         1.500E-02   AT NODE          1   DOF 11
   INSTANCE: PART-1-1                                                                        
 LARGEST CORRECTION TO TEMP.        4.142E-10   AT NODE          2   DOF 11
   INSTANCE: PART-1-1                                                                        
          THE HEAT FLUX EQUILIBRIUM RESPONSE WAS LINEAR IN THIS INCREMENT

 MAXIMUM NON-PRESCRIBED INCREMENT IN TEMPERATURE IS   3.961E-08

 ITERATION SUMMARY FOR THE INCREMENT:   1 TOTAL ITERATIONS, OF WHICH
   0 ARE SEVERE DISCONTINUITY ITERATIONS AND  1 ARE EQUILIBRIUM ITERATIONS.

 TIME INCREMENT COMPLETED  1.000E-02,  FRACTION OF STEP COMPLETED  0.956    
 STEP TIME COMPLETED       0.956    ,  TOTAL TIME COMPLETED        0.956    


  INCREMENT   111 STARTS. ATTEMPT NUMBER  1, TIME INCREMENT  1.000E-02
 
	UNSYMMETRIC NEW DIRECT SPARSE SOLVER RUNNING ON
 	1 HOST x 1 MPI RANK PER HOST x 1 THREAD PER RANK
        NUMBER OF EQUATIONS:  34
        NUMBER OF RHS:        1
        NUMBER OF FLOPS:      2.625e+04
        SOLVER ELAPSED TIME:  0ms

               CONVERGENCE CHECKS FOR EQUILIBRIUM ITERATION     1


 AVERAGE FORCE                      6.087E-08   TIME AVG. FORCE       1.000E-02
 LARGEST SCALED RESIDUAL FORCE      1.554E-07   AT NODE          9   DOF  3
   INSTANCE: PART-1-1                                                                        
  CORRESPONDING RESIDUAL FORCE      1.554E-07
 LARGEST INCREMENT OF DISP.         5.000E-04   AT NODE          2   DOF  3
   INSTANCE: PART-1-1                                                                        
 LARGEST CORRECTION TO DISP.        9.583E-13   AT NODE          5   DOF  3
   INSTANCE: PART-1-1                                                                        
          ALL DISP.    CORRECTIONS ARE ZERO

 AVERAGE HEAT FLUX                  1.268E+05   TIME AVG. HEAT FLUX   1.265E+05
 LARGEST RESIDUAL HEAT FLUX          0.00       AT NODE          2   DOF 11
   INSTANCE: PART-1-1                                                                        
 LARGEST INCREMENT OF TEMP.         1.500E-02   AT NODE          1   DOF 11
   INSTANCE: PART-1-1                                                                        
 LARGEST CORRECTION TO TEMP.        4.142E-10   AT NODE          2   DOF 11
   INSTANCE: PART-1-1                                                                        
          THE HEAT FLUX EQUILIBRIUM RESPONSE WAS LINEAR IN THIS INCREMENT

 MAXIMUM NON-PRESCRIBED INCREMENT IN TEMPERATURE IS   4.003E-08

 ITERATION SUMMARY FOR THE INCREMENT:   1 TOTAL ITERATIONS, OF WHICH
   0 ARE SEVERE DISCONTINUITY ITERATIONS AND  1 ARE EQUILIBRIUM ITERATIONS.

 TIME INCREMENT COMPLETED  1.000E-02,  FRACTION OF STEP COMPLETED  0.966    
 STEP TIME COMPLETED       0.966    ,  TOTAL TIME COMPLETED        0.966    


  INCREMENT   112 STARTS. ATTEMPT NUMBER  1, TIME INCREMENT  1.000E-02
 
	UNSYMMETRIC NEW DIRECT SPARSE SOLVER RUNNING ON
 	1 HOST x 1 MPI RANK PER HOST x 1 THREAD PER RANK
        NUMBER OF EQUATIONS:  34
        NUMBER OF RHS:        1
        NUMBER OF FLOPS:      2.625e+04
        SOLVER ELAPSED TIME:  0ms

               CONVERGENCE CHECKS FOR EQUILIBRIUM ITERATION     1


 AVERAGE FORCE                      6.151E-08   TIME AVG. FORCE       1.000E-02
 LARGEST SCALED RESIDUAL FORCE      1.570E-07   AT NODE          9   DOF  3
   INSTANCE: PART-1-1                                                                        
  CORRESPONDING RESIDUAL FORCE      1.570E-07
 LARGEST INCREMENT OF DISP.         5.000E-04   AT NODE          2   DOF  3
   INSTANCE: PART-1-1                                                                        
 LARGEST CORRECTION TO DISP.        9.683E-13   AT NODE          9   DOF  3
   INSTANCE: PART-1-1                                                                        
          ALL DISP.    CORRECTIONS ARE ZERO

 AVERAGE HEAT FLUX                  1.268E+05   TIME AVG. HEAT FLUX   1.265E+05
 LARGEST RESIDUAL HEAT FLUX         2.776E-17   AT NODE          2   DOF 11
   INSTANCE: PART-1-1                                                                        
 LARGEST INCREMENT OF TEMP.         1.500E-02   AT NODE          1   DOF 11
   INSTANCE: PART-1-1                                                                        
 LARGEST CORRECTION TO TEMP.        4.142E-10   AT NODE          2   DOF 11
   INSTANCE: PART-1-1                                                                        
          THE HEAT FLUX EQUILIBRIUM RESPONSE WAS LINEAR IN THIS INCREMENT

 MAXIMUM NON-PRESCRIBED INCREMENT IN TEMPERATURE IS   4.044E-08

 ITERATION SUMMARY FOR THE INCREMENT:   1 TOTAL ITERATIONS, OF WHICH
   0 ARE SEVERE DISCONTINUITY ITERATIONS AND  1 ARE EQUILIBRIUM ITERATIONS.

 TIME INCREMENT COMPLETED  1.000E-02,  FRACTION OF STEP COMPLETED  0.976    
 STEP TIME COMPLETED       0.976    ,  TOTAL TIME COMPLETED        0.976    


  INCREMENT   113 STARTS. ATTEMPT NUMBER  1, TIME INCREMENT  1.000E-02
 
	UNSYMMETRIC NEW DIRECT SPARSE SOLVER RUNNING ON
 	1 HOST x 1 MPI RANK PER HOST x 1 THREAD PER RANK
        NUMBER OF EQUATIONS:  34
        NUMBER OF RHS:        1
        NUMBER OF FLOPS:      2.625e+04
        SOLVER ELAPSED TIME:  0ms

               CONVERGENCE CHECKS FOR EQUILIBRIUM ITERATION     1


 AVERAGE FORCE                      6.214E-08   TIME AVG. FORCE       1.000E-02
 LARGEST SCALED RESIDUAL FORCE      1.587E-07   AT NODE          9   DOF  3
   INSTANCE: PART-1-1                                                                        
  CORRESPONDING RESIDUAL FORCE      1.587E-07
 LARGEST INCREMENT OF DISP.         5.000E-04   AT NODE          2   DOF  3
   INSTANCE: PART-1-1                                                                        
 LARGEST CORRECTION TO DISP.        9.784E-13   AT NODE          9   DOF  3
   INSTANCE: PART-1-1                                                                        
          ALL DISP.    CORRECTIONS ARE ZERO

 AVERAGE HEAT FLUX                  1.268E+05   TIME AVG. HEAT FLUX   1.265E+05
 LARGEST RESIDUAL HEAT FLUX         6.939E-17   AT NODE          2   DOF 11
   INSTANCE: PART-1-1                                                                        
 LARGEST INCREMENT OF TEMP.         1.500E-02   AT NODE          1   DOF 11
   INSTANCE: PART-1-1                                                                        
 LARGEST CORRECTION TO TEMP.        4.142E-10   AT NODE          2   DOF 11
   INSTANCE: PART-1-1                                                                        
          THE HEAT FLUX EQUILIBRIUM RESPONSE WAS LINEAR IN THIS INCREMENT

 MAXIMUM NON-PRESCRIBED INCREMENT IN TEMPERATURE IS   4.086E-08

 ITERATION SUMMARY FOR THE INCREMENT:   1 TOTAL ITERATIONS, OF WHICH
   0 ARE SEVERE DISCONTINUITY ITERATIONS AND  1 ARE EQUILIBRIUM ITERATIONS.

 TIME INCREMENT COMPLETED  1.000E-02,  FRACTION OF STEP COMPLETED  0.986    
 STEP TIME COMPLETED       0.986    ,  TOTAL TIME COMPLETED        0.986    


  INCREMENT   114 STARTS. ATTEMPT NUMBER  1, TIME INCREMENT  1.000E-02
 
	UNSYMMETRIC NEW DIRECT SPARSE SOLVER RUNNING ON
 	1 HOST x 1 MPI RANK PER HOST x 1 THREAD PER RANK
        NUMBER OF EQUATIONS:  34
        NUMBER OF RHS:        1
        NUMBER OF FLOPS:      2.625e+04
        SOLVER ELAPSED TIME:  0ms

               CONVERGENCE CHECKS FOR EQUILIBRIUM ITERATION     1


 AVERAGE FORCE                      6.278E-08   TIME AVG. FORCE       1.000E-02
 LARGEST SCALED RESIDUAL FORCE      1.603E-07   AT NODE          9   DOF  3
   INSTANCE: PART-1-1                                                                        
  CORRESPONDING RESIDUAL FORCE      1.603E-07
 LARGEST INCREMENT OF DISP.         5.000E-04   AT NODE          2   DOF  3
   INSTANCE: PART-1-1                                                                        
 LARGEST CORRECTION TO DISP.        9.884E-13   AT NODE          9   DOF  3
   INSTANCE: PART-1-1                                                                        
          ALL DISP.    CORRECTIONS ARE ZERO

 AVERAGE HEAT FLUX                  1.268E+05   TIME AVG. HEAT FLUX   1.265E+05
 LARGEST RESIDUAL HEAT FLUX          0.00       AT NODE          2   DOF 11
   INSTANCE: PART-1-1                                                                        
 LARGEST INCREMENT OF TEMP.         1.500E-02   AT NODE          1   DOF 11
   INSTANCE: PART-1-1                                                                        
 LARGEST CORRECTION TO TEMP.        4.142E-10   AT NODE          2   DOF 11
   INSTANCE: PART-1-1                                                                        
          THE HEAT FLUX EQUILIBRIUM RESPONSE WAS LINEAR IN THIS INCREMENT

 MAXIMUM NON-PRESCRIBED INCREMENT IN TEMPERATURE IS   4.127E-08

 ITERATION SUMMARY FOR THE INCREMENT:   1 TOTAL ITERATIONS, OF WHICH
   0 ARE SEVERE DISCONTINUITY ITERATIONS AND  1 ARE EQUILIBRIUM ITERATIONS.

 TIME INCREMENT COMPLETED  1.000E-02,  FRACTION OF STEP COMPLETED  0.996    
 STEP TIME COMPLETED       0.996    ,  TOTAL TIME COMPLETED        0.996    


  INCREMENT   115 STARTS. ATTEMPT NUMBER  1, TIME INCREMENT  3.615E-03
 
	UNSYMMETRIC NEW DIRECT SPARSE SOLVER RUNNING ON
 	1 HOST x 1 MPI RANK PER HOST x 1 THREAD PER RANK
        NUMBER OF EQUATIONS:  34
        NUMBER OF RHS:        1
        NUMBER OF FLOPS:      2.625e+04
        SOLVER ELAPSED TIME:  0ms

               CONVERGENCE CHECKS FOR EQUILIBRIUM ITERATION     1


 AVERAGE FORCE                      6.342E-08   TIME AVG. FORCE       1.000E-02
 LARGEST SCALED RESIDUAL FORCE      1.619E-07   AT NODE          9   DOF  3
   INSTANCE: PART-1-1                                                                        
  CORRESPONDING RESIDUAL FORCE      1.619E-07
 LARGEST INCREMENT OF DISP.         1.807E-04   AT NODE          2   DOF  3
   INSTANCE: PART-1-1                                                                        
 LARGEST CORRECTION TO DISP.        9.984E-13   AT NODE          9   DOF  3
   INSTANCE: PART-1-1                                                                        
          ALL DISP.    CORRECTIONS ARE ZERO

 AVERAGE HEAT FLUX                  1.268E+05   TIME AVG. HEAT FLUX   1.265E+05
 LARGEST RESIDUAL HEAT FLUX        -9.714E-17   AT NODE          2   DOF 11
   INSTANCE: PART-1-1                                                                        
 LARGEST INCREMENT OF TEMP.         5.422E-03   AT NODE          1   DOF 11
   INSTANCE: PART-1-1                                                                        
 LARGEST CORRECTION TO TEMP.        5.413E-11   AT NODE          2   DOF 11
   INSTANCE: PART-1-1                                                                        
          THE HEAT FLUX EQUILIBRIUM RESPONSE WAS LINEAR IN THIS INCREMENT

 MAXIMUM NON-PRESCRIBED INCREMENT IN TEMPERATURE IS   1.497E-08

 ITERATION SUMMARY FOR THE INCREMENT:   1 TOTAL ITERATIONS, OF WHICH
   0 ARE SEVERE DISCONTINUITY ITERATIONS AND  1 ARE EQUILIBRIUM ITERATIONS.

 TIME INCREMENT COMPLETED  3.615E-03,  FRACTION OF STEP COMPLETED   1.00    
 STEP TIME COMPLETED        1.00    ,  TOTAL TIME COMPLETED         1.00    


          THE ANALYSIS HAS BEEN COMPLETED



     ANALYSIS SUMMARY:
     TOTAL OF        115  INCREMENTS
                       0  CUTBACKS IN AUTOMATIC INCREMENTATION
                     115  ITERATIONS INCLUDING CONTACT ITERATIONS IF PRESENT
                     115  PASSES THROUGH THE EQUATION SOLVER OF WHICH 
                      53  INVOLVE MATRIX DECOMPOSITION, INCLUDING
                       0  DECOMPOSITION(S) OF THE MASS MATRIX
                       1  REORDERING OF EQUATIONS TO MINIMIZE WAVEFRONT
                       0  ADDITIONAL RESIDUAL EVALUATIONS FOR LINE SEARCHES
                       0  ADDITIONAL OPERATOR EVALUATIONS FOR LINE SEARCHES
                       2  WARNING MESSAGES DURING USER INPUT PROCESSING
                      75  WARNING MESSAGES DURING ANALYSIS
                       0  ANALYSIS WARNINGS ARE NUMERICAL PROBLEM MESSAGES
                       0  ANALYSIS WARNINGS ARE NEGATIVE EIGENVALUE MESSAGES
                       0  ERROR MESSAGES



     JOB TIME SUMMARY
       USER TIME (SEC)      =     0.70    
       SYSTEM TIME (SEC)    =     0.23    
       TOTAL CPU TIME (SEC) =     0.93    
       WALLCLOCK TIME (SEC) =            1
       MEMORY PEAK (GB)     =            2
