*Heading
** Job name: Job-3 Model name: CMSG
** Generated by: Abaqus/CAE 6.12-1
*Preprint, echo=NO, model=NO, history=NO, contact=NO
**
** PARTS
**
*Part, name=Part-1
*End Part
**  
**
** ASSEMBLY
**
*Assembly, name=Assembly
**  
*Instance, name=Part-1-1, part=Part-1
*Node
      1,           1.,           1.
      2,         0.75,           1.
      3,          0.5,           1.
      4,         0.25,           1.
      5,           0.,           1.
      6,           1.,           0.75
      7,          0.5,           0.75
      8,           0.,           0.75
      9,           1.,           0.5
     10,         0.75,           0.5
     11,          0.5,           0.5
     12,         0.25,           0.5
     13,           0.,           0.5
     14,           1.,           0.25
     15,          0.5,           0.25
     16,           0.,           0.25
     17,           1.,           0.
     18,         0.75,           0.
     19,          0.5,           0.
     20,         0.25,           0.
     21,           0.,           0.
*Element, type=CPE8RT
 1,  1,  3,  11,  9,  2,  7,  10,  6
 2,  3,  5,  13, 11,  4,  8,  12,  7
 3,  9, 11,  19, 17,  10, 15,  18,  14
 4,  11, 13,  21, 19,  12,  16,  20,  15
*Nset, nset=Set-1, generate
  1,  21,   1
*Elset, elset=Set-1, generate
  1,  4,   1
** Section: Section-1
*Solid Section, elset=Set-1, material=Material-1
,
*End Instance
** 
*Nset, nset=Set-1, instance=Part-1-1
  5,  8,  13,  16,  21
*Elset, elset=Set-1, instance=Part-1-1
  2,  4
*Nset, nset=Set-102, instance=Part-1-1, generate
     1,  21,      1
*Elset, elset=Set-102, instance=Part-1-1, generate
    1,  4,     1
*Nset, nset=Hsurface, instance=Part-1-1
  17, 18, 19, 20, 21
*Elset, elset=Hsurface, instance=Part-1-1
  3,  4
*Nset, nset=Dispx, instance=Part-1-1
  1,  6, 9, 14, 17
*Elset, elset=Dispx, instance=Part-1-1
  1,  3
*End Assembly
** 
** MATERIALS
** 
*Material, name=Material-1
*Density
1.,
*Depvar
     16,
1, EE11, EE11
2, EE22, EE22
3, EE33, EE33
4, EE12, EE12
5, EP11, EP11
6, EP22, EP22
7, EP33, EP33
8, EP12, EP12
9, PEEQ, PEEQ
10, DPEEQ, DPEEQ
11, RHO, RHO
12, CT1, CT1
13, CT2, CT2
14, CT3, CT3
15, CT, CT
16, C, C
*User Material, constants=4, type=MECHANICAL
201880., 0.3, 595., 0.059
** E, v, Sy, N
*User Material, constants=8, type=THERMAL
0.01271, 4, 20.2e6, 0., 58.6e6, 8.464e13, 11.5e6, 8.464e17  
**D, kflag, Wb_1 (kJ/mol), Nt_1, Wb_2, Nt_2, Wb_3, Nt_3, ..., Wb_n, Nt_n
** kflag: 0 - No traps, 1 - no dislocations, 2 - Sofronis & McMeeking,  
** 3 - Krom et al., 4 - Dadfarnia et al., 5 - Fernandez-Sousa et al.
** 
** PREDEFINED FIELDS
** 
** Name: Predefined Field-1   Type: Temperature
*Initial Conditions, type=TEMPERATURE
Set-102, 2.659e11
** ----------------------------------------------------------------
**  
** STEP: Step-1
** 
*Step, name=Step-1, nlgeom=YES, inc=1000000, unsymm=YES, amplitude=RAMP
*Coupled Temperature-displacement, creep=none, deltmx=1e13
0.0001, 1., 1e-25, 0.01
** 
** BOUNDARY CONDITIONS
** 
** Name: BC-1 Type: Symmetry/Antisymmetry/Encastre
*Boundary
Set-1, ENCASTRE
*Boundary
Dispx, 1, 1, 0.1
** Name: Set-1 Type: Temperature
*Boundary
Set-1, 11, 11, 2.659e13
**
** OUTPUT REQUESTS
** 
*Restart, write, frequency=0
** 
** FIELD OUTPUT: F-Output-1
** 
*Output, field, frequency=100
*Node Output
NT, RF, RFL, U
*Element Output, directions=YES
E, HFL, LE, S, SDV, TEMP
** 
** HISTORY OUTPUT: H-Output-1
** 
*Output, history, variable=PRESELECT
*End Step
