 Abaqus/Standard 2024                  DATE 27-May-2025 TIME 08:28:00
 SUMMARY OF JOB INFORMATION:
 STEP  INC ATT SEVERE EQUIL TOTAL  TOTAL      STEP       INC OF       DOF    IF
               DISCON ITERS ITERS  TIME/    TIME/LPF    TIME/LPF    MONITOR RIKS
               ITERS               FREQ
   1     1   1     0     2     2  0.000100   0.000100   0.0001000 
   1     2   1     0     4     4  0.000200   0.000200   0.0001000 
   1     3   1     0     4     4  0.000300   0.000300   0.0001000 
   1     4   1     0     4     4  0.000450   0.000450   0.0001500 
   1     5   1     0     4     4  0.000675   0.000675   0.0002250 
   1     6   1     0     4     4  0.00101    0.00101    0.0003375 
   1     7   1     0     4     4  0.00152    0.00152    0.0005062 
   1     8   1     0     4     4  0.00228    0.00228    0.0007594 
   1     9   1     0     4     4  0.00342    0.00342    0.001139  
   1    10   1     0     5     5  0.00513    0.00513    0.001709  
   1    11   1     0     5     5  0.00683    0.00683    0.001709  
   1    12   1     0     5     5  0.00854    0.00854    0.001709  
   1    13   1     0     5     5  0.0103     0.0103     0.001709  
   1    14   1     0     5     5  0.0120     0.0120     0.001709  
   1    15   1     0     5     5  0.0137     0.0137     0.001709  
   1    16   1     0     5     5  0.0154     0.0154     0.001709  
   1    17   1     0     5     5  0.0171     0.0171     0.001709  
   1    18   1     0     5     5  0.0188     0.0188     0.001709  
   1    19   1     0     5     5  0.0205     0.0205     0.001709  
   1    20   1     0     5     5  0.0222     0.0222     0.001709  
   1    21   1     0     5     5  0.0239     0.0239     0.001709  
   1    22   1     0     5     5  0.0256     0.0256     0.001709  
   1    23   1     0     5     5  0.0273     0.0273     0.001709  
   1    24   1     0     5     5  0.0290     0.0290     0.001709  
   1    25   1     0     5     5  0.0308     0.0308     0.001709  
   1    26   1     0     5     5  0.0325     0.0325     0.001709  
   1    27   1     0     5     5  0.0342     0.0342     0.001709  
   1    28   1     0     5     5  0.0359     0.0359     0.001709  
   1    29   1     0     5     5  0.0376     0.0376     0.001709  
   1    30   1     0     5     5  0.0393     0.0393     0.001709  
   1    31   1     0     5     5  0.0410     0.0410     0.001709  
   1    32   1     0     5     5  0.0427     0.0427     0.001709  
   1    33   1     0     5     5  0.0444     0.0444     0.001709  
   1    34   1     0     5     5  0.0461     0.0461     0.001709  
   1    35   1     0     5     5  0.0478     0.0478     0.001709  
   1    36   1     0     5     5  0.0495     0.0495     0.001709  
   1    37   1     0     5     5  0.0513     0.0513     0.001709  
   1    38   1     0     5     5  0.0530     0.0530     0.001709  
   1    39   1     0     5     5  0.0547     0.0547     0.001709  
   1    40   1     0     5     5  0.0564     0.0564     0.001709  
   1    41   1     0     5     5  0.0581     0.0581     0.001709  
   1    42   1     0     5     5  0.0598     0.0598     0.001709  
   1    43   1     0     5     5  0.0615     0.0615     0.001709  
   1    44   1     0     5     5  0.0632     0.0632     0.001709  
   1    45   1     0     5     5  0.0649     0.0649     0.001709  
   1    46   1     0     5     5  0.0666     0.0666     0.001709  
   1    47   1     0     5     5  0.0683     0.0683     0.001709  
   1    48   1     0     5     5  0.0701     0.0701     0.001709  
   1    49   1     0     5     5  0.0718     0.0718     0.001709  
   1    50   1     0     5     5  0.0735     0.0735     0.001709  
   1    51   1     0     5     5  0.0752     0.0752     0.001709  
   1    52   1     0     5     5  0.0769     0.0769     0.001709  
   1    53   1     0     5     5  0.0786     0.0786     0.001709  
   1    54   1     0     5     5  0.0803     0.0803     0.001709  
   1    55   1     0     5     5  0.0820     0.0820     0.001709  
   1    56   1     0     5     5  0.0837     0.0837     0.001709  
   1    57   1     0     5     5  0.0854     0.0854     0.001709  
   1    58   1     0     5     5  0.0871     0.0871     0.001709  
   1    59   1     0     5     5  0.0888     0.0888     0.001709  
   1    60   1     0     5     5  0.0906     0.0906     0.001709  
   1    61   1     0     5     5  0.0923     0.0923     0.001709  
   1    62   1     0     5     5  0.0940     0.0940     0.001709  
   1    63   1     0     5     5  0.0957     0.0957     0.001709  
   1    64   1     0     5     5  0.0974     0.0974     0.001709  
   1    65   1     0     5     5  0.0991     0.0991     0.001709  
   1    66   1     0     5     5  0.101      0.101      0.001709  
   1    67   1     0     5     5  0.103      0.103      0.001709  
   1    68   1     0     5     5  0.104      0.104      0.001709  
   1    69   1     0     5     5  0.106      0.106      0.001709  
   1    70   1     0     5     5  0.108      0.108      0.001709  
   1    71   1     0     5     5  0.109      0.109      0.001709  
   1    72   1     0     5     5  0.111      0.111      0.001709  
   1    73   1     0     5     5  0.113      0.113      0.001709  
   1    74   1     0     5     5  0.114      0.114      0.001709  
   1    75   1     0     5     5  0.116      0.116      0.001709  
   1    76   1     0     5     5  0.118      0.118      0.001709  
   1    77   1     0     5     5  0.120      0.120      0.001709  
   1    78   1     0     5     5  0.121      0.121      0.001709  
   1    79   1     0     5     5  0.123      0.123      0.001709  
   1    80   1     0     5     5  0.125      0.125      0.001709  
   1    81   1     0     5     5  0.126      0.126      0.001709  
   1    82   1     0     5     5  0.128      0.128      0.001709  
   1    83   1     0     5     5  0.130      0.130      0.001709  
   1    84   1     0     5     5  0.132      0.132      0.001709  
   1    85   1     0     5     5  0.133      0.133      0.001709  
   1    86   1     0     5     5  0.135      0.135      0.001709  
   1    87   1     0     5     5  0.137      0.137      0.001709  
   1    88   1     0     5     5  0.138      0.138      0.001709  
   1    89   1     0     5     5  0.140      0.140      0.001709  
   1    90   1     0     5     5  0.142      0.142      0.001709  
   1    91   1     0     5     5  0.144      0.144      0.001709  
   1    92   1     0     5     5  0.145      0.145      0.001709  
   1    93   1     0     5     5  0.147      0.147      0.001709  
   1    94   1     0     5     5  0.149      0.149      0.001709  
   1    95   1     0     5     5  0.150      0.150      0.001709  
   1    96   1     0     5     5  0.152      0.152      0.001709  
   1    97   1     0     5     5  0.154      0.154      0.001709  
   1    98   1     0     5     5  0.155      0.155      0.001709  
   1    99   1     0     5     5  0.157      0.157      0.001709  
   1   100   1     0     5     5  0.159      0.159      0.001709  
   1   101   1     0     5     5  0.161      0.161      0.001709  
   1   102   1     0     5     5  0.162      0.162      0.001709  
   1   103   1     0     5     5  0.164      0.164      0.001709  
   1   104   1     0     5     5  0.166      0.166      0.001709  
   1   105   1     0     5     5  0.167      0.167      0.001709  
   1   106   1     0     5     5  0.169      0.169      0.001709  
   1   107   1     0     5     5  0.171      0.171      0.001709  
   1   108   1     0     5     5  0.173      0.173      0.001709  
   1   109   1     0     5     5  0.174      0.174      0.001709  
   1   110   1     0     5     5  0.176      0.176      0.001709  
   1   111   1     0     5     5  0.178      0.178      0.001709  
   1   112   1     0     5     5  0.179      0.179      0.001709  
   1   113   1     0     5     5  0.181      0.181      0.001709  
   1   114   1     0     5     5  0.183      0.183      0.001709  
   1   115   1     0     5     5  0.185      0.185      0.001709  
   1   116   1     0     5     5  0.186      0.186      0.001709  
   1   117   1     0     5     5  0.188      0.188      0.001709  
   1   118   1     0     5     5  0.190      0.190      0.001709  
   1   119   1     0     5     5  0.191      0.191      0.001709  
   1   120   1     0     5     5  0.193      0.193      0.001709  
   1   121   1     0     5     5  0.195      0.195      0.001709  
   1   122   1     0     5     5  0.196      0.196      0.001709  
   1   123   1     0     5     5  0.198      0.198      0.001709  
   1   124   1     0     5     5  0.200      0.200      0.001709  
   1   125   1     0     5     5  0.202      0.202      0.001709  
   1   126   1     0     5     5  0.203      0.203      0.001709  
   1   127   1     0     5     5  0.205      0.205      0.001709  
   1   128   1     0     5     5  0.207      0.207      0.001709  
   1   129   1     0     5     5  0.208      0.208      0.001709  
   1   130   1     0     5     5  0.210      0.210      0.001709  
   1   131   1     0     5     5  0.212      0.212      0.001709  
   1   132   1     0     5     5  0.214      0.214      0.001709  
   1   133   1     0     5     5  0.215      0.215      0.001709  
   1   134   1     0     5     5  0.217      0.217      0.001709  
   1   135   1     0     5     5  0.219      0.219      0.001709  
   1   136   1     0     5     5  0.220      0.220      0.001709  
   1   137   1     0     5     5  0.222      0.222      0.001709  
   1   138   1     0     5     5  0.224      0.224      0.001709  
   1   139   1     0     5     5  0.226      0.226      0.001709  
   1   140   1     0     5     5  0.227      0.227      0.001709  
   1   141   1     0     5     5  0.229      0.229      0.001709  
   1   142   1     0     5     5  0.231      0.231      0.001709  
   1   143   1     0     5     5  0.232      0.232      0.001709  
   1   144   1     0     5     5  0.234      0.234      0.001709  
   1   145   1     0     5     5  0.236      0.236      0.001709  
   1   146   1     0     5     5  0.237      0.237      0.001709  
   1   147   1     0     5     5  0.239      0.239      0.001709  
   1   148   1     0     5     5  0.241      0.241      0.001709  
   1   149   1     0     5     5  0.243      0.243      0.001709  
   1   150   1     0     5     5  0.244      0.244      0.001709  
   1   151   1     0     5     5  0.246      0.246      0.001709  
   1   152   1     0     5     5  0.248      0.248      0.001709  
   1   153   1     0     5     5  0.249      0.249      0.001709  
   1   154   1     0     5     5  0.251      0.251      0.001709  
   1   155   1     0     5     5  0.253      0.253      0.001709  
   1   156   1     0     5     5  0.255      0.255      0.001709  
   1   157   1     0     5     5  0.256      0.256      0.001709  
   1   158   1     0     5     5  0.258      0.258      0.001709  
   1   159   1     0     5     5  0.260      0.260      0.001709  
   1   160   1     0     5     5  0.261      0.261      0.001709  
   1   161   1     0     5     5  0.263      0.263      0.001709  
   1   162   1     0     5     5  0.265      0.265      0.001709  
   1   163   1     0     5     5  0.267      0.267      0.001709  
   1   164   1     0     5     5  0.268      0.268      0.001709  
   1   165   1     0     5     5  0.270      0.270      0.001709  
   1   166   1     0     5     5  0.272      0.272      0.001709  
   1   167   1     0     5     5  0.273      0.273      0.001709  
   1   168   1     0     5     5  0.275      0.275      0.001709  
   1   169   1     0     5     5  0.277      0.277      0.001709  
   1   170   1     0     5     5  0.279      0.279      0.001709  
   1   171   1     0     5     5  0.280      0.280      0.001709  
   1   172   1     0     5     5  0.282      0.282      0.001709  
   1   173   1     0     5     5  0.284      0.284      0.001709  
   1   174   1     0     5     5  0.285      0.285      0.001709  
   1   175   1     0     5     5  0.287      0.287      0.001709  
   1   176   1     0     5     5  0.289      0.289      0.001709  
   1   177   1     0     5     5  0.290      0.290      0.001709  
   1   178   1     0     5     5  0.292      0.292      0.001709  
   1   179   1     0     5     5  0.294      0.294      0.001709  
   1   180   1     0     5     5  0.296      0.296      0.001709  
   1   181   1     0     5     5  0.297      0.297      0.001709  
   1   182   1     0     5     5  0.299      0.299      0.001709  
   1   183   1     0     5     5  0.301      0.301      0.001709  
   1   184   1     0     5     5  0.302      0.302      0.001709  
   1   185   1     0     5     5  0.304      0.304      0.001709  
   1   186   1     0     5     5  0.306      0.306      0.001709  
   1   187   1     0     5     5  0.308      0.308      0.001709  
   1   188   1     0     5     5  0.309      0.309      0.001709  
   1   189   1     0     5     5  0.311      0.311      0.001709  
   1   190   1     0     5     5  0.313      0.313      0.001709  
   1   191   1     0     5     5  0.314      0.314      0.001709  
   1   192   1     0     5     5  0.316      0.316      0.001709  
   1   193   1     0     5     5  0.318      0.318      0.001709  
   1   194   1     0     5     5  0.320      0.320      0.001709  
   1   195   1     0     5     5  0.321      0.321      0.001709  
   1   196   1     0     5     5  0.323      0.323      0.001709  
   1   197   1     0     5     5  0.325      0.325      0.001709  
   1   198   1     0     5     5  0.326      0.326      0.001709  
   1   199   1     0     5     5  0.328      0.328      0.001709  
   1   200   1     0     5     5  0.330      0.330      0.001709  
   1   201   1     0     5     5  0.331      0.331      0.001709  
   1   202   1     0     5     5  0.333      0.333      0.001709  
   1   203   1     0     5     5  0.335      0.335      0.001709  
   1   204   1     0     5     5  0.337      0.337      0.001709  
   1   205   1     0     5     5  0.338      0.338      0.001709  
   1   206   1     0     5     5  0.340      0.340      0.001709  
   1   207   1     0     5     5  0.342      0.342      0.001709  
   1   208   1     0     5     5  0.343      0.343      0.001709  
   1   209   1     0     5     5  0.345      0.345      0.001709  
   1   210   1     0     5     5  0.347      0.347      0.001709  
   1   211   1     0     5     5  0.349      0.349      0.001709  
   1   212   1     0     5     5  0.350      0.350      0.001709  
   1   213   1     0     5     5  0.352      0.352      0.001709  
   1   214   1     0     5     5  0.354      0.354      0.001709  
   1   215   1     0     5     5  0.355      0.355      0.001709  
   1   216   1     0     5     5  0.357      0.357      0.001709  
   1   217   1     0     5     5  0.359      0.359      0.001709  
   1   218   1     0     5     5  0.361      0.361      0.001709  
   1   219   1     0     5     5  0.362      0.362      0.001709  
   1   220   1     0     5     5  0.364      0.364      0.001709  
   1   221   1     0     5     5  0.366      0.366      0.001709  
   1   222   1     0     5     5  0.367      0.367      0.001709  
   1   223   1     0     5     5  0.369      0.369      0.001709  
   1   224   1     0     5     5  0.371      0.371      0.001709  
   1   225   1     0     5     5  0.372      0.372      0.001709  
   1   226   1     0     5     5  0.374      0.374      0.001709  
   1   227   1     0     5     5  0.376      0.376      0.001709  
   1   228   1     0     5     5  0.378      0.378      0.001709  
   1   229   1     0     5     5  0.379      0.379      0.001709  
   1   230   1     0     5     5  0.381      0.381      0.001709  
   1   231   1     0     5     5  0.383      0.383      0.001709  
   1   232   1     0     5     5  0.384      0.384      0.001709  
   1   233   1     0     5     5  0.386      0.386      0.001709  
   1   234   1     0     5     5  0.388      0.388      0.001709  
   1   235   1     0     5     5  0.390      0.390      0.001709  
   1   236   1     0     5     5  0.391      0.391      0.001709  
   1   237   1     0     5     5  0.393      0.393      0.001709  
   1   238   1     0     5     5  0.395      0.395      0.001709  
   1   239   1     0     5     5  0.396      0.396      0.001709  
   1   240   1     0     5     5  0.398      0.398      0.001709  
   1   241   1     0     5     5  0.400      0.400      0.001709  
   1   242   1     0     5     5  0.402      0.402      0.001709  
   1   243   1     0     5     5  0.403      0.403      0.001709  
   1   244   1     0     5     5  0.405      0.405      0.001709  
   1   245   1     0     5     5  0.407      0.407      0.001709  
   1   246   1     0     5     5  0.408      0.408      0.001709  
   1   247   1     0     5     5  0.410      0.410      0.001709  
   1   248   1     0     5     5  0.412      0.412      0.001709  
   1   249   1     0     5     5  0.413      0.413      0.001709  
   1   250   1     0     5     5  0.415      0.415      0.001709  
   1   251   1     0     5     5  0.417      0.417      0.001709  
   1   252   1     0     5     5  0.419      0.419      0.001709  
   1   253   1     0     5     5  0.420      0.420      0.001709  
   1   254   1     0     5     5  0.422      0.422      0.001709  
   1   255   1     0     5     5  0.424      0.424      0.001709  
   1   256   1     0     5     5  0.425      0.425      0.001709  
   1   257   1     0     5     5  0.427      0.427      0.001709  
   1   258   1     0     5     5  0.429      0.429      0.001709  
   1   259   1     0     5     5  0.431      0.431      0.001709  
   1   260   1     0     5     5  0.432      0.432      0.001709  
   1   261   1     0     5     5  0.434      0.434      0.001709  
   1   262   1     0     5     5  0.436      0.436      0.001709  
   1   263   1     0     5     5  0.437      0.437      0.001709  
   1   264   1     0     5     5  0.439      0.439      0.001709  
   1   265   1     0     5     5  0.441      0.441      0.001709  
   1   266   1     0     5     5  0.443      0.443      0.001709  
   1   267   1     0     5     5  0.444      0.444      0.001709  
   1   268   1     0     5     5  0.446      0.446      0.001709  
   1   269   1     0     5     5  0.448      0.448      0.001709  
   1   270   1     0     5     5  0.449      0.449      0.001709  
   1   271   1     0     5     5  0.451      0.451      0.001709  
   1   272   1     0     5     5  0.453      0.453      0.001709  
   1   273   1     0     5     5  0.454      0.454      0.001709  
   1   274   1     0     5     5  0.456      0.456      0.001709  
   1   275   1     0     5     5  0.458      0.458      0.001709  
   1   276   1     0     5     5  0.460      0.460      0.001709  
   1   277   1     0     5     5  0.461      0.461      0.001709  
   1   278   1     0     5     5  0.463      0.463      0.001709  
   1   279   1     0     5     5  0.465      0.465      0.001709  
   1   280   1     0     5     5  0.466      0.466      0.001709  
   1   281   1     0     5     5  0.468      0.468      0.001709  
   1   282   1     0     5     5  0.470      0.470      0.001709  
   1   283   1     0     5     5  0.472      0.472      0.001709  
   1   284   1     0     5     5  0.473      0.473      0.001709  
   1   285   1     0     5     5  0.475      0.475      0.001709  
   1   286   1     0     5     5  0.477      0.477      0.001709  
   1   287   1     0     5     5  0.478      0.478      0.001709  
   1   288   1     0     5     5  0.480      0.480      0.001709  
   1   289   1     0     5     5  0.482      0.482      0.001709  
   1   290   1     0     5     5  0.484      0.484      0.001709  
   1   291   1     0     5     5  0.485      0.485      0.001709  
   1   292   1     0     5     5  0.487      0.487      0.001709  
   1   293   1     0     5     5  0.489      0.489      0.001709  
   1   294   1     0     5     5  0.490      0.490      0.001709  
   1   295   1     0     5     5  0.492      0.492      0.001709  
   1   296   1     0     5     5  0.494      0.494      0.001709  
   1   297   1     0     5     5  0.495      0.495      0.001709  
   1   298   1     0     5     5  0.497      0.497      0.001709  
   1   299   1     0     5     5  0.499      0.499      0.001709  
   1   300   1     0     5     5  0.501      0.501      0.001709  
   1   301   1     0     5     5  0.502      0.502      0.001709  
   1   302   1     0     5     5  0.504      0.504      0.001709  
   1   303   1     0     5     5  0.506      0.506      0.001709  
   1   304   1     0     5     5  0.507      0.507      0.001709  
   1   305   1     0     5     5  0.509      0.509      0.001709  
   1   306   1     0     5     5  0.511      0.511      0.001709  
   1   307   1     0     5     5  0.513      0.513      0.001709  
   1   308   1     0     5     5  0.514      0.514      0.001709  
   1   309   1     0     5     5  0.516      0.516      0.001709  
   1   310   1     0     5     5  0.518      0.518      0.001709  
   1   311   1     0     5     5  0.519      0.519      0.001709  
   1   312   1     0     5     5  0.521      0.521      0.001709  
   1   313   1     0     5     5  0.523      0.523      0.001709  
   1   314   1     0     5     5  0.525      0.525      0.001709  
   1   315   1     0     5     5  0.526      0.526      0.001709  
   1   316   1     0     5     5  0.528      0.528      0.001709  
   1   317   1     0     5     5  0.530      0.530      0.001709  
   1   318   1     0     5     5  0.531      0.531      0.001709  
   1   319   1     0     5     5  0.533      0.533      0.001709  
   1   320   1     0     5     5  0.535      0.535      0.001709  
   1   321   1     0     5     5  0.536      0.536      0.001709  
   1   322   1     0     5     5  0.538      0.538      0.001709  
   1   323   1     0     5     5  0.540      0.540      0.001709  
   1   324   1     0     5     5  0.542      0.542      0.001709  
   1   325   1     0     5     5  0.543      0.543      0.001709  
   1   326   1     0     5     5  0.545      0.545      0.001709  
   1   327   1     0     5     5  0.547      0.547      0.001709  
   1   328   1     0     5     5  0.548      0.548      0.001709  
   1   329   1     0     5     5  0.550      0.550      0.001709  
   1   330   1     0     5     5  0.552      0.552      0.001709  
   1   331   1     0     5     5  0.554      0.554      0.001709  
   1   332   1     0     5     5  0.555      0.555      0.001709  
   1   333   1     0     5     5  0.557      0.557      0.001709  
   1   334   1     0     5     5  0.559      0.559      0.001709  
   1   335   1     0     5     5  0.560      0.560      0.001709  
   1   336   1     0     5     5  0.562      0.562      0.001709  
   1   337   1     0     5     5  0.564      0.564      0.001709  
   1   338   1     0     5     5  0.566      0.566      0.001709  
   1   339   1     0     5     5  0.567      0.567      0.001709  
   1   340   1     0     5     5  0.569      0.569      0.001709  
   1   341   1     0     5     5  0.571      0.571      0.001709  
   1   342   1     0     5     5  0.572      0.572      0.001709  
   1   343   1     0     5     5  0.574      0.574      0.001709  
   1   344   1     0     5     5  0.576      0.576      0.001709  
   1   345   1     0     5     5  0.578      0.578      0.001709  
   1   346   1     0     5     5  0.579      0.579      0.001709  
   1   347   1     0     5     5  0.581      0.581      0.001709  
   1   348   1     0     5     5  0.583      0.583      0.001709  
   1   349   1     0     5     5  0.584      0.584      0.001709  
   1   350   1     0     5     5  0.586      0.586      0.001709  
   1   351   1     0     5     5  0.588      0.588      0.001709  
   1   352   1     0     5     5  0.589      0.589      0.001709  
   1   353   1     0     5     5  0.591      0.591      0.001709  
   1   354   1     0     5     5  0.593      0.593      0.001709  
   1   355   1     0     5     5  0.595      0.595      0.001709  
   1   356   1     0     5     5  0.596      0.596      0.001709  
   1   357   1     0     5     5  0.598      0.598      0.001709  
   1   358   1     0     5     5  0.600      0.600      0.001709  
   1   359   1     0     5     5  0.601      0.601      0.001709  
   1   360   1     0     5     5  0.603      0.603      0.001709  
   1   361   1     0     5     5  0.605      0.605      0.001709  
   1   362   1     0     5     5  0.607      0.607      0.001709  
   1   363   1     0     5     5  0.608      0.608      0.001709  
   1   364   1     0     5     5  0.610      0.610      0.001709  
   1   365   1     0     5     5  0.612      0.612      0.001709  
   1   366   1     0     5     5  0.613      0.613      0.001709  
   1   367   1     0     5     5  0.615      0.615      0.001709  
   1   368   1     0     5     5  0.617      0.617      0.001709  
   1   369   1     0     5     5  0.619      0.619      0.001709  
   1   370   1     0     5     5  0.620      0.620      0.001709  
   1   371   1     0     5     5  0.622      0.622      0.001709  
   1   372   1     0     5     5  0.624      0.624      0.001709  
   1   373   1     0     5     5  0.625      0.625      0.001709  
   1   374   1     0     5     5  0.627      0.627      0.001709  
   1   375   1     0     5     5  0.629      0.629      0.001709  
   1   376   1     0     5     5  0.630      0.630      0.001709  
   1   377   1     0     5     5  0.632      0.632      0.001709  
   1   378   1     0     5     5  0.634      0.634      0.001709  
   1   379   1     0     5     5  0.636      0.636      0.001709  
   1   380   1     0     5     5  0.637      0.637      0.001709  
   1   381   1     0     5     5  0.639      0.639      0.001709  
   1   382   1     0     5     5  0.641      0.641      0.001709  
   1   383   1     0     5     5  0.642      0.642      0.001709  
   1   384   1     0     5     5  0.644      0.644      0.001709  
   1   385   1     0     5     5  0.646      0.646      0.001709  
   1   386   1     0     5     5  0.648      0.648      0.001709  
   1   387   1     0     5     5  0.649      0.649      0.001709  
   1   388   1     0     5     5  0.651      0.651      0.001709  
   1   389   1     0     5     5  0.653      0.653      0.001709  
   1   390   1     0     5     5  0.654      0.654      0.001709  
   1   391   1     0     5     5  0.656      0.656      0.001709  
   1   392   1     0     5     5  0.658      0.658      0.001709  
   1   393   1     0     5     5  0.660      0.660      0.001709  
   1   394   1     0     5     5  0.661      0.661      0.001709  
   1   395   1     0     5     5  0.663      0.663      0.001709  
   1   396   1     0     5     5  0.665      0.665      0.001709  
   1   397   1     0     5     5  0.666      0.666      0.001709  
   1   398   1     0     5     5  0.668      0.668      0.001709  
   1   399   1     0     5     5  0.670      0.670      0.001709  
   1   400   1     0     5     5  0.671      0.671      0.001709  
   1   401   1     0     5     5  0.673      0.673      0.001709  
   1   402   1     0     5     5  0.675      0.675      0.001709  
   1   403   1     0     5     5  0.677      0.677      0.001709  
   1   404   1     0     5     5  0.678      0.678      0.001709  
   1   405   1     0     5     5  0.680      0.680      0.001709  
   1   406   1     0     5     5  0.682      0.682      0.001709  
   1   407   1     0     5     5  0.683      0.683      0.001709  
   1   408   1     0     5     5  0.685      0.685      0.001709  
   1   409   1     0     5     5  0.687      0.687      0.001709  
   1   410   1     0     5     5  0.689      0.689      0.001709  
   1   411   1     0     5     5  0.690      0.690      0.001709  
   1   412   1     0     5     5  0.692      0.692      0.001709  
   1   413   1     0     5     5  0.694      0.694      0.001709  
   1   414   1     0     5     5  0.695      0.695      0.001709  
   1   415   1     0     5     5  0.697      0.697      0.001709  
   1   416   1     0     5     5  0.699      0.699      0.001709  
   1   417   1     0     5     5  0.701      0.701      0.001709  
   1   418   1     0     5     5  0.702      0.702      0.001709  
   1   419   1     0     5     5  0.704      0.704      0.001709  
   1   420   1     0     5     5  0.706      0.706      0.001709  
   1   421   1     0     5     5  0.707      0.707      0.001709  
   1   422   1     0     5     5  0.709      0.709      0.001709  
   1   423   1     0     5     5  0.711      0.711      0.001709  
   1   424   1     0     5     5  0.712      0.712      0.001709  
   1   425   1     0     5     5  0.714      0.714      0.001709  
   1   426   1     0     5     5  0.716      0.716      0.001709  
   1   427   1     0     5     5  0.718      0.718      0.001709  
   1   428   1     0     5     5  0.719      0.719      0.001709  
   1   429   1     0     5     5  0.721      0.721      0.001709  
   1   430   1     0     5     5  0.723      0.723      0.001709  
   1   431   1     0     5     5  0.724      0.724      0.001709  
   1   432   1     0     5     5  0.726      0.726      0.001709  
   1   433   1     0     5     5  0.728      0.728      0.001709  
   1   434   1     0     5     5  0.730      0.730      0.001709  
   1   435   1     0     5     5  0.731      0.731      0.001709  
   1   436   1     0     5     5  0.733      0.733      0.001709  
   1   437   1     0     5     5  0.735      0.735      0.001709  
   1   438   1     0     5     5  0.736      0.736      0.001709  
   1   439   1     0     5     5  0.738      0.738      0.001709  
   1   440   1     0     5     5  0.740      0.740      0.001709  
   1   441   1     0     5     5  0.742      0.742      0.001709  
   1   442   1     0     5     5  0.743      0.743      0.001709  
   1   443   1     0     5     5  0.745      0.745      0.001709  
   1   444   1     0     5     5  0.747      0.747      0.001709  
   1   445   1     0     5     5  0.748      0.748      0.001709  
   1   446   1     0     5     5  0.750      0.750      0.001709  
   1   447   1     0     5     5  0.752      0.752      0.001709  
   1   448   1     0     5     5  0.753      0.753      0.001709  
   1   449   1     0     5     5  0.755      0.755      0.001709  
   1   450   1     0     5     5  0.757      0.757      0.001709  
   1   451   1     0     5     5  0.759      0.759      0.001709  
   1   452   1     0     5     5  0.760      0.760      0.001709  
   1   453   1     0     5     5  0.762      0.762      0.001709  
   1   454   1     0     5     5  0.764      0.764      0.001709  
   1   455   1     0     5     5  0.765      0.765      0.001709  
   1   456   1     0     5     5  0.767      0.767      0.001709  
   1   457   1     0     5     5  0.769      0.769      0.001709  
   1   458   1     0     5     5  0.771      0.771      0.001709  
   1   459   1     0     5     5  0.772      0.772      0.001709  
   1   460   1     0     5     5  0.774      0.774      0.001709  
   1   461   1     0     5     5  0.776      0.776      0.001709  
   1   462   1     0     5     5  0.777      0.777      0.001709  
   1   463   1     0     5     5  0.779      0.779      0.001709  
   1   464   1     0     5     5  0.781      0.781      0.001709  
   1   465   1     0     5     5  0.783      0.783      0.001709  
   1   466   1     0     5     5  0.784      0.784      0.001709  
   1   467   1     0     5     5  0.786      0.786      0.001709  
   1   468   1     0     5     5  0.788      0.788      0.001709  
   1   469   1     0     5     5  0.789      0.789      0.001709  
   1   470   1     0     5     5  0.791      0.791      0.001709  
   1   471   1     0     5     5  0.793      0.793      0.001709  
   1   472   1     0     5     5  0.794      0.794      0.001709  
   1   473   1     0     5     5  0.796      0.796      0.001709  
   1   474   1     0     5     5  0.798      0.798      0.001709  
   1   475   1     0     5     5  0.800      0.800      0.001709  
   1   476   1     0     5     5  0.801      0.801      0.001709  
   1   477   1     0     5     5  0.803      0.803      0.001709  
   1   478   1     0     5     5  0.805      0.805      0.001709  
   1   479   1     0     5     5  0.806      0.806      0.001709  
   1   480   1     0     5     5  0.808      0.808      0.001709  
   1   481   1     0     5     5  0.810      0.810      0.001709  
   1   482   1     0     5     5  0.812      0.812      0.001709  
   1   483   1     0     5     5  0.813      0.813      0.001709  
   1   484   1     0     5     5  0.815      0.815      0.001709  
   1   485   1     0     5     5  0.817      0.817      0.001709  
   1   486   1     0     5     5  0.818      0.818      0.001709  
   1   487   1     0     5     5  0.820      0.820      0.001709  
   1   488   1     0     5     5  0.822      0.822      0.001709  
   1   489   1     0     5     5  0.824      0.824      0.001709  
   1   490   1     0     5     5  0.825      0.825      0.001709  
   1   491   1     0     5     5  0.827      0.827      0.001709  
   1   492   1     0     5     5  0.829      0.829      0.001709  
   1   493   1     0     5     5  0.830      0.830      0.001709  
   1   494   1     0     5     5  0.832      0.832      0.001709  
   1   495   1     0     5     5  0.834      0.834      0.001709  
   1   496   1     0     5     5  0.836      0.836      0.001709  
   1   497   1     0     5     5  0.837      0.837      0.001709  
   1   498   1     0     5     5  0.839      0.839      0.001709  
   1   499   1     0     5     5  0.841      0.841      0.001709  
   1   500   1     0     5     5  0.842      0.842      0.001709  
   1   501   1     0     5     5  0.844      0.844      0.001709  
   1   502   1     0     5     5  0.846      0.846      0.001709  
   1   503   1     0     5     5  0.847      0.847      0.001709  
   1   504   1     0     5     5  0.849      0.849      0.001709  
   1   505   1     0     5     5  0.851      0.851      0.001709  
   1   506   1     0     5     5  0.853      0.853      0.001709  
   1   507   1     0     5     5  0.854      0.854      0.001709  
   1   508   1     0     5     5  0.856      0.856      0.001709  
   1   509   1     0     5     5  0.858      0.858      0.001709  
   1   510   1     0     5     5  0.859      0.859      0.001709  
   1   511   1     0     5     5  0.861      0.861      0.001709  
   1   512   1     0     5     5  0.863      0.863      0.001709  
   1   513   1     0     5     5  0.865      0.865      0.001709  
   1   514   1     0     5     5  0.866      0.866      0.001709  
   1   515   1     0     5     5  0.868      0.868      0.001709  
   1   516   1     0     5     5  0.870      0.870      0.001709  
   1   517   1     0     5     5  0.871      0.871      0.001709  
   1   518   1     0     5     5  0.873      0.873      0.001709  
   1   519   1     0     5     5  0.875      0.875      0.001709  
   1   520   1     0     5     5  0.877      0.877      0.001709  
   1   521   1     0     5     5  0.878      0.878      0.001709  
   1   522   1     0     5     5  0.880      0.880      0.001709  
   1   523   1     0     5     5  0.882      0.882      0.001709  
   1   524   1     0     5     5  0.883      0.883      0.001709  
   1   525   1     0     5     5  0.885      0.885      0.001709  
   1   526   1     0     5     5  0.887      0.887      0.001709  
   1   527   1     0     5     5  0.888      0.888      0.001709  
   1   528   1     0     5     5  0.890      0.890      0.001709  
   1   529   1     0     5     5  0.892      0.892      0.001709  
   1   530   1     0     5     5  0.894      0.894      0.001709  
   1   531   1     0     5     5  0.895      0.895      0.001709  
   1   532   1     0     5     5  0.897      0.897      0.001709  
   1   533   1     0     5     5  0.899      0.899      0.001709  
   1   534   1     0     5     5  0.900      0.900      0.001709  
   1   535   1     0     5     5  0.902      0.902      0.001709  
   1   536   1     0     5     5  0.904      0.904      0.001709  
   1   537   1     0     5     5  0.906      0.906      0.001709  
   1   538   1     0     5     5  0.907      0.907      0.001709  
   1   539   1     0     5     5  0.909      0.909      0.001709  
   1   540   1     0     5     5  0.911      0.911      0.001709  
   1   541   1     0     5     5  0.912      0.912      0.001709  
   1   542   1     0     5     5  0.914      0.914      0.001709  
   1   543   1     0     5     5  0.916      0.916      0.001709  
   1   544   1     0     5     5  0.918      0.918      0.001709  
   1   545   1     0     5     5  0.919      0.919      0.001709  
   1   546   1     0     5     5  0.921      0.921      0.001709  
   1   547   1     0     5     5  0.923      0.923      0.001709  
   1   548   1     0     5     5  0.924      0.924      0.001709  
   1   549   1     0     5     5  0.926      0.926      0.001709  
   1   550   1     0     5     5  0.928      0.928      0.001709  
   1   551   1     0     5     5  0.929      0.929      0.001709  
   1   552   1     0     5     5  0.931      0.931      0.001709  
   1   553   1     0     5     5  0.933      0.933      0.001709  
   1   554   1     0     5     5  0.935      0.935      0.001709  
   1   555   1     0     5     5  0.936      0.936      0.001709  
   1   556   1     0     5     5  0.938      0.938      0.001709  
   1   557   1     0     5     5  0.940      0.940      0.001709  
   1   558   1     0     5     5  0.941      0.941      0.001709  
   1   559   1     0     5     5  0.943      0.943      0.001709  
   1   560   1     0     5     5  0.945      0.945      0.001709  
   1   561   1     0     5     5  0.947      0.947      0.001709  
   1   562   1     0     5     5  0.948      0.948      0.001709  
   1   563   1     0     5     5  0.950      0.950      0.001709  
   1   564   1     0     5     5  0.952      0.952      0.001709  
   1   565   1     0     5     5  0.953      0.953      0.001709  
   1   566   1     0     5     5  0.955      0.955      0.001709  
   1   567   1     0     5     5  0.957      0.957      0.001709  
   1   568   1     0     5     5  0.959      0.959      0.001709  
   1   569   1     0     5     5  0.960      0.960      0.001709  
   1   570   1     0     5     5  0.962      0.962      0.001709  
   1   571   1     0     5     5  0.964      0.964      0.001709  
   1   572   1     0     5     5  0.965      0.965      0.001709  
   1   573   1     0     5     5  0.967      0.967      0.001709  
   1   574   1     0     5     5  0.969      0.969      0.001709  
   1   575   1     0     5     5  0.970      0.970      0.001709  
   1   576   1     0     5     5  0.972      0.972      0.001709  
   1   577   1     0     5     5  0.974      0.974      0.001709  
   1   578   1     0     5     5  0.976      0.976      0.001709  
   1   579   1     0     5     5  0.977      0.977      0.001709  
   1   580   1     0     5     5  0.979      0.979      0.001709  
   1   581   1     0     5     5  0.981      0.981      0.001709  
   1   582   1     0     5     5  0.982      0.982      0.001709  
   1   583   1     0     5     5  0.984      0.984      0.001709  
   1   584   1     0     5     5  0.986      0.986      0.001709  
   1   585   1     0     5     5  0.988      0.988      0.001709  
   1   586   1     0     5     5  0.989      0.989      0.001709  
   1   587   1     0     5     5  0.991      0.991      0.001709  
   1   588   1     0     5     5  0.993      0.993      0.001709  
   1   589   1     0     5     5  0.994      0.994      0.001709  
   1   590   1     0     5     5  0.996      0.996      0.001709  
   1   591   1     0     5     5  0.998      0.998      0.001709  
   1   592   1     0     5     5  1.00       1.00       0.001709  
   1   593   1     0     5     5  1.00       1.00       0.0004727 
                          
 THE ANALYSIS HAS COMPLETED SUCCESSFULLY
