1

   Abaqus 2024                                  Date 12-Jun-2025   Time 15:51:49
   For use by UNIVERSITY OF WYOMING under license from Dassault Systemes or its subsidiary.

                                                                                 
                                                                                 
 STEP    1     INCREMENT     1     STEP TIME    0.00    


                        S T E P       1     S T A T I C   A N A L Y S I S


                                                                                          

     AUTOMATIC TIME CONTROL WITH -
          A SUGGESTED INITIAL TIME INCREMENT OF                1.000E-04
          AND A TOTAL TIME PERIOD OF                            1.00    
          THE MINIMUM TIME INCREMENT ALLOWED IS                1.000E-25
          THE MAXIMUM TIME INCREMENT ALLOWED IS                1.000E-02

     LINEAR EQUATION SOLVER TYPE         DIRECT SPARSE

 CONVERGENCE TOLERANCE PARAMETERS FOR FORCE    
     CRITERION FOR RESIDUAL FORCE     FOR A NONLINEAR PROBLEM          5.000E-03
     CRITERION FOR DISP.    CORRECTION IN A NONLINEAR PROBLEM          1.000E-02
     INITIAL VALUE OF TIME AVERAGE FORCE                               1.000E-02
     AVERAGE FORCE     IS TIME AVERAGE FORCE    
     ALTERNATE CRIT. FOR RESIDUAL FORCE     FOR A NONLINEAR PROBLEM    2.000E-02
     CRITERION FOR ZERO FORCE     RELATIVE TO TIME AVRG. FORCE         1.000E-05
     CRITERION FOR RESIDUAL FORCE     WHEN THERE IS ZERO FLUX          1.000E-05
     CRITERION FOR DISP.    CORRECTION WHEN THERE IS ZERO FLUX         1.000E-03
     CRITERION FOR RESIDUAL FORCE     FOR A LINEAR INCREMENT           1.000E-08
     FIELD CONVERSION RATIO                                             1.00    
     CRITERION FOR ZERO FORCE     REL. TO TIME AVRG. MAX. FORCE        1.000E-05
     CRITERION FOR ZERO DISP.    RELATIVE TO CHARACTERISTIC LENGTH     1.000E-08

     VOLUMETRIC STRAIN COMPATIBILITY TOLERANCE FOR HYBRID SOLIDS       1.000E-05
     AXIAL STRAIN COMPATIBILITY TOLERANCE FOR HYBRID BEAMS             1.000E-05
     TRANS. SHEAR STRAIN COMPATIBILITY TOLERANCE FOR HYBRID BEAMS      1.000E-05
     SOFT CONTACT CONSTRAINT COMPATIBILITY TOLERANCE FOR P>P0          5.000E-03
     SOFT CONTACT CONSTRAINT COMPATIBILITY TOLERANCE FOR P=0.0         0.100    
     CONTACT FORCE ERROR TOLERANCE FOR CONVERT SDI=YES                 1.00    
     DISPLACEMENT COMPATIBILITY TOLERANCE FOR DCOUP ELEMENTS           1.000E-05
     ROTATION COMPATIBILITY TOLERANCE FOR DCOUP ELEMENTS               1.000E-05

 EQUILIBRIUM WILL BE CHECKED FOR SEVERE DISCONTINUITY ITERATIONS

 TIME INCREMENTATION CONTROL PARAMETERS:
     FIRST EQUILIBRIUM ITERATION FOR CONSECUTIVE DIVERGENCE CHECK              4
     EQUILIBRIUM ITERATION AT WHICH LOG. CONVERGENCE RATE CHECK BEGINS         8
     EQUILIBRIUM ITERATION AFTER WHICH ALTERNATE RESIDUAL IS USED              9
     MAXIMUM EQUILIBRIUM ITERATIONS ALLOWED                                   16
     EQUILIBRIUM ITERATION COUNT FOR CUT-BACK IN NEXT INCREMENT               10
     MAXIMUM EQUILIB. ITERS IN TWO INCREMENTS FOR TIME INCREMENT INCREASE      4
     MAXIMUM ITERATIONS FOR SEVERE DISCONTINUITIES                            50
     MAXIMUM ATTEMPTS ALLOWED IN AN INCREMENT                                  5
     MAXIMUM DISCON. ITERS IN TWO INCREMENTS FOR TIME INCREMENT INCREASE      50
     MAXIMUM CONTACT AUGMENTATIONS FOR *SURFACE BEHAVIOR,AUGMENTED LAGRANGE   50
     CUT-BACK FACTOR AFTER DIVERGENCE                                 0.2500    
     CUT-BACK FACTOR FOR TOO SLOW CONVERGENCE                         0.5000    
     CUT-BACK FACTOR AFTER TOO MANY EQUILIBRIUM ITERATIONS            0.7500    
     CUT-BACK FACTOR AFTER TOO MANY SEVERE DISCONTINUITY ITERATIONS   0.2500    
     CUT-BACK FACTOR AFTER PROBLEMS IN ELEMENT ASSEMBLY               0.2500    
     INCREASE FACTOR AFTER TWO INCREMENTS THAT CONVERGE QUICKLY        1.500    
     MAX. TIME INCREMENT INCREASE FACTOR ALLOWED                       1.500    
     MAX. TIME INCREMENT INCREASE FACTOR ALLOWED (DYNAMICS)            1.250    
     MAX. TIME INCREMENT INCREASE FACTOR ALLOWED (DIFFUSION)           2.000    
     MINIMUM TIME INCREMENT RATIO FOR EXTRAPOLATION TO OCCUR          0.1000    
     MAX. RATIO OF TIME INCREMENT TO STABILITY LIMIT                   1.000    
     FRACTION OF STABILITY LIMIT FOR NEW TIME INCREMENT               0.9500    
     TIME INCREMENT INCREASE FACTOR BEFORE A TIME POINT                1.000    
     GLOBAL STABILIZATION CONTROL IS NOT USED

          PRINT OF INCREMENT NUMBER, TIME, ETC., EVERY    1  INCREMENTS

     THE MAXIMUM NUMBER OF INCREMENTS IN THIS STEP IS                   10000

          LARGE DISPLACEMENT THEORY WILL BE USED

     LINEAR EXTRAPOLATION WILL BE USED

     CHARACTERISTIC ELEMENT LENGTH     0.961    

     DETAILS REGARDING ACTUAL SOLUTION WAVEFRONT REQUESTED

     DETAILED OUTPUT OF DIAGNOSTICS TO DATABASE REQUESTED

     PRINT OF INCREMENT NUMBER, TIME, ETC., TO THE MESSAGE FILE EVERY     1  INCREMENTS

     COLLECTING MODEL CONSTRAINT INFORMATION FOR OVERCONSTRAINT CHECKS

     COLLECTING STEP CONSTRAINT INFORMATION FOR OVERCONSTRAINT CHECKS


  INCREMENT     1 STARTS. ATTEMPT NUMBER  1, TIME INCREMENT  1.000E-04
 
	SYMMETRIC NEW DIRECT SPARSE SOLVER RUNNING ON
 	1 HOST x 1 MPI RANK PER HOST x 1 THREAD PER RANK
        NUMBER OF EQUATIONS:  7794
        NUMBER OF RHS:        1
        NUMBER OF FLOPS:      1.008e+09
        SOLVER ELAPSED TIME:  47ms

               CONVERGENCE CHECKS FOR EQUILIBRIUM ITERATION     1


 AVERAGE FORCE                      7.214E-05   TIME AVG. FORCE       7.214E-05
 LARGEST SCALED RESIDUAL FORCE      1.630E-07   AT NODE       1700   DOF  1
  CORRESPONDING RESIDUAL FORCE      1.630E-07
 LARGEST INCREMENT OF DISP.         5.176E-05   AT NODE        735   DOF  1
 LARGEST CORRECTION TO DISP.        5.176E-05   AT NODE        735   DOF  1
          DISP.    CORRECTION TOO LARGE COMPARED TO DISP.    INCREMENT
 
	SYMMETRIC NEW DIRECT SPARSE SOLVER RUNNING ON
 	1 HOST x 1 MPI RANK PER HOST x 1 THREAD PER RANK
        NUMBER OF EQUATIONS:  7794
        NUMBER OF RHS:        1
        NUMBER OF FLOPS:      1.008e+09
        SOLVER ELAPSED TIME:  42ms

               CONVERGENCE CHECKS FOR EQUILIBRIUM ITERATION     2


 AVERAGE FORCE                      7.214E-05   TIME AVG. FORCE       7.214E-05
 LARGEST SCALED RESIDUAL FORCE     -6.251E-12   AT NODE        919   DOF  2
  CORRESPONDING RESIDUAL FORCE     -6.251E-12
 LARGEST INCREMENT OF DISP.         5.176E-05   AT NODE        735   DOF  1
 LARGEST CORRECTION TO DISP.       -2.438E-09   AT NODE       1886   DOF  2
          THE FORCE     EQUILIBRIUM EQUATIONS HAVE CONVERGED

 ITERATION SUMMARY FOR THE INCREMENT:   2 TOTAL ITERATIONS, OF WHICH
   0 ARE SEVERE DISCONTINUITY ITERATIONS AND  2 ARE EQUILIBRIUM ITERATIONS.

 TIME INCREMENT COMPLETED  1.000E-04,  FRACTION OF STEP COMPLETED  1.000E-04
 STEP TIME COMPLETED       1.000E-04,  TOTAL TIME COMPLETED        1.000E-04


  INCREMENT     2 STARTS. ATTEMPT NUMBER  1, TIME INCREMENT  1.000E-04
 
	SYMMETRIC NEW DIRECT SPARSE SOLVER RUNNING ON
 	1 HOST x 1 MPI RANK PER HOST x 1 THREAD PER RANK
        NUMBER OF EQUATIONS:  7794
        NUMBER OF RHS:        1
        NUMBER OF FLOPS:      1.008e+09
        SOLVER ELAPSED TIME:  42ms

               CONVERGENCE CHECKS FOR EQUILIBRIUM ITERATION     1


 AVERAGE FORCE                      1.445E-04   TIME AVG. FORCE       1.083E-04
 LARGEST SCALED RESIDUAL FORCE      1.541E-11   AT NODE       1642   DOF  1
  CORRESPONDING RESIDUAL FORCE      1.541E-11
 LARGEST INCREMENT OF DISP.         5.176E-05   AT NODE        735   DOF  1
 LARGEST CORRECTION TO DISP.       -6.076E-09   AT NODE       1886   DOF  2
          THE FORCE     EQUILIBRIUM EQUATIONS HAVE CONVERGED
          TIME INCREMENT MAY NOW INCREASE TO    1.500E-04

 ITERATION SUMMARY FOR THE INCREMENT:   1 TOTAL ITERATIONS, OF WHICH
   0 ARE SEVERE DISCONTINUITY ITERATIONS AND  1 ARE EQUILIBRIUM ITERATIONS.

 TIME INCREMENT COMPLETED  1.000E-04,  FRACTION OF STEP COMPLETED  2.000E-04
 STEP TIME COMPLETED       2.000E-04,  TOTAL TIME COMPLETED        2.000E-04


  INCREMENT     3 STARTS. ATTEMPT NUMBER  1, TIME INCREMENT  1.500E-04
 
	SYMMETRIC NEW DIRECT SPARSE SOLVER RUNNING ON
 	1 HOST x 1 MPI RANK PER HOST x 1 THREAD PER RANK
        NUMBER OF EQUATIONS:  7794
        NUMBER OF RHS:        1
        NUMBER OF FLOPS:      1.008e+09
        SOLVER ELAPSED TIME:  43ms

               CONVERGENCE CHECKS FOR EQUILIBRIUM ITERATION     1


 AVERAGE FORCE                      2.528E-04   TIME AVG. FORCE       1.565E-04
 LARGEST SCALED RESIDUAL FORCE      4.653E-11   AT NODE       1642   DOF  1
  CORRESPONDING RESIDUAL FORCE      4.653E-11
 LARGEST INCREMENT OF DISP.         7.764E-05   AT NODE        735   DOF  1
 LARGEST CORRECTION TO DISP.       -1.094E-08   AT NODE       1886   DOF  2
          THE FORCE     EQUILIBRIUM EQUATIONS HAVE CONVERGED
          TIME INCREMENT MAY NOW INCREASE TO    2.250E-04

 ITERATION SUMMARY FOR THE INCREMENT:   1 TOTAL ITERATIONS, OF WHICH
   0 ARE SEVERE DISCONTINUITY ITERATIONS AND  1 ARE EQUILIBRIUM ITERATIONS.

 TIME INCREMENT COMPLETED  1.500E-04,  FRACTION OF STEP COMPLETED  3.500E-04
 STEP TIME COMPLETED       3.500E-04,  TOTAL TIME COMPLETED        3.500E-04


  INCREMENT     4 STARTS. ATTEMPT NUMBER  1, TIME INCREMENT  2.250E-04
 
	SYMMETRIC NEW DIRECT SPARSE SOLVER RUNNING ON
 	1 HOST x 1 MPI RANK PER HOST x 1 THREAD PER RANK
        NUMBER OF EQUATIONS:  7794
        NUMBER OF RHS:        1
        NUMBER OF FLOPS:      1.008e+09
        SOLVER ELAPSED TIME:  42ms

               CONVERGENCE CHECKS FOR EQUILIBRIUM ITERATION     1


 AVERAGE FORCE                      4.152E-04   TIME AVG. FORCE       2.211E-04
 LARGEST SCALED RESIDUAL FORCE      1.569E-10   AT NODE       1642   DOF  1
  CORRESPONDING RESIDUAL FORCE      1.569E-10
 LARGEST INCREMENT OF DISP.         1.165E-04   AT NODE        735   DOF  1
 LARGEST CORRECTION TO DISP.       -2.461E-08   AT NODE       1886   DOF  2
          THE FORCE     EQUILIBRIUM EQUATIONS HAVE CONVERGED
          TIME INCREMENT MAY NOW INCREASE TO    3.375E-04

 ITERATION SUMMARY FOR THE INCREMENT:   1 TOTAL ITERATIONS, OF WHICH
   0 ARE SEVERE DISCONTINUITY ITERATIONS AND  1 ARE EQUILIBRIUM ITERATIONS.

 TIME INCREMENT COMPLETED  2.250E-04,  FRACTION OF STEP COMPLETED  5.750E-04
 STEP TIME COMPLETED       5.750E-04,  TOTAL TIME COMPLETED        5.750E-04


  INCREMENT     5 STARTS. ATTEMPT NUMBER  1, TIME INCREMENT  3.375E-04
 
	SYMMETRIC NEW DIRECT SPARSE SOLVER RUNNING ON
 	1 HOST x 1 MPI RANK PER HOST x 1 THREAD PER RANK
        NUMBER OF EQUATIONS:  7794
        NUMBER OF RHS:        1
        NUMBER OF FLOPS:      1.008e+09
        SOLVER ELAPSED TIME:  42ms

               CONVERGENCE CHECKS FOR EQUILIBRIUM ITERATION     1


 AVERAGE FORCE                      6.587E-04   TIME AVG. FORCE       3.087E-04
 LARGEST SCALED RESIDUAL FORCE      5.289E-10   AT NODE       1642   DOF  1
  CORRESPONDING RESIDUAL FORCE      5.289E-10
 LARGEST INCREMENT OF DISP.         1.747E-04   AT NODE        735   DOF  1
 LARGEST CORRECTION TO DISP.       -5.533E-08   AT NODE       1886   DOF  2
          THE FORCE     EQUILIBRIUM EQUATIONS HAVE CONVERGED
          TIME INCREMENT MAY NOW INCREASE TO    5.062E-04

 ITERATION SUMMARY FOR THE INCREMENT:   1 TOTAL ITERATIONS, OF WHICH
   0 ARE SEVERE DISCONTINUITY ITERATIONS AND  1 ARE EQUILIBRIUM ITERATIONS.

 TIME INCREMENT COMPLETED  3.375E-04,  FRACTION OF STEP COMPLETED  9.125E-04
 STEP TIME COMPLETED       9.125E-04,  TOTAL TIME COMPLETED        9.125E-04


  INCREMENT     6 STARTS. ATTEMPT NUMBER  1, TIME INCREMENT  5.062E-04
 
	SYMMETRIC NEW DIRECT SPARSE SOLVER RUNNING ON
 	1 HOST x 1 MPI RANK PER HOST x 1 THREAD PER RANK
        NUMBER OF EQUATIONS:  7794
        NUMBER OF RHS:        1
        NUMBER OF FLOPS:      1.008e+09
        SOLVER ELAPSED TIME:  43ms

               CONVERGENCE CHECKS FOR EQUILIBRIUM ITERATION     1


 AVERAGE FORCE                      1.024E-03   TIME AVG. FORCE       4.279E-04
 LARGEST SCALED RESIDUAL FORCE      1.782E-09   AT NODE       1642   DOF  1
  CORRESPONDING RESIDUAL FORCE      1.782E-09
 LARGEST INCREMENT OF DISP.         2.620E-04   AT NODE        735   DOF  1
 LARGEST CORRECTION TO DISP.       -1.244E-07   AT NODE       1886   DOF  2
          THE FORCE     EQUILIBRIUM EQUATIONS HAVE CONVERGED
          TIME INCREMENT MAY NOW INCREASE TO    7.594E-04

 ITERATION SUMMARY FOR THE INCREMENT:   1 TOTAL ITERATIONS, OF WHICH
   0 ARE SEVERE DISCONTINUITY ITERATIONS AND  1 ARE EQUILIBRIUM ITERATIONS.

 TIME INCREMENT COMPLETED  5.062E-04,  FRACTION OF STEP COMPLETED  1.419E-03
 STEP TIME COMPLETED       1.419E-03,  TOTAL TIME COMPLETED        1.419E-03


  INCREMENT     7 STARTS. ATTEMPT NUMBER  1, TIME INCREMENT  7.594E-04
 
	SYMMETRIC NEW DIRECT SPARSE SOLVER RUNNING ON
 	1 HOST x 1 MPI RANK PER HOST x 1 THREAD PER RANK
        NUMBER OF EQUATIONS:  7794
        NUMBER OF RHS:        1
        NUMBER OF FLOPS:      1.008e+09
        SOLVER ELAPSED TIME:  42ms

               CONVERGENCE CHECKS FOR EQUILIBRIUM ITERATION     1


 AVERAGE FORCE                      1.571E-03   TIME AVG. FORCE       5.912E-04
 LARGEST SCALED RESIDUAL FORCE      5.996E-09   AT NODE       1642   DOF  1
  CORRESPONDING RESIDUAL FORCE      5.996E-09
 LARGEST INCREMENT OF DISP.         3.930E-04   AT NODE        735   DOF  1
 LARGEST CORRECTION TO DISP.       -2.795E-07   AT NODE       1886   DOF  2
          THE FORCE     EQUILIBRIUM EQUATIONS HAVE CONVERGED
          TIME INCREMENT MAY NOW INCREASE TO    1.139E-03

 ITERATION SUMMARY FOR THE INCREMENT:   1 TOTAL ITERATIONS, OF WHICH
   0 ARE SEVERE DISCONTINUITY ITERATIONS AND  1 ARE EQUILIBRIUM ITERATIONS.

 TIME INCREMENT COMPLETED  7.594E-04,  FRACTION OF STEP COMPLETED  2.178E-03
 STEP TIME COMPLETED       2.178E-03,  TOTAL TIME COMPLETED        2.178E-03


  INCREMENT     8 STARTS. ATTEMPT NUMBER  1, TIME INCREMENT  1.139E-03
 
	SYMMETRIC NEW DIRECT SPARSE SOLVER RUNNING ON
 	1 HOST x 1 MPI RANK PER HOST x 1 THREAD PER RANK
        NUMBER OF EQUATIONS:  7794
        NUMBER OF RHS:        1
        NUMBER OF FLOPS:      1.008e+09
        SOLVER ELAPSED TIME:  41ms

               CONVERGENCE CHECKS FOR EQUILIBRIUM ITERATION     1


 AVERAGE FORCE                      2.392E-03   TIME AVG. FORCE       8.163E-04
 LARGEST SCALED RESIDUAL FORCE      2.015E-08   AT NODE       1642   DOF  1
  CORRESPONDING RESIDUAL FORCE      2.015E-08
 LARGEST INCREMENT OF DISP.         5.896E-04   AT NODE        735   DOF  1
 LARGEST CORRECTION TO DISP.       -6.277E-07   AT NODE       1886   DOF  2
          THE FORCE     EQUILIBRIUM EQUATIONS HAVE CONVERGED
          TIME INCREMENT MAY NOW INCREASE TO    1.709E-03

 ITERATION SUMMARY FOR THE INCREMENT:   1 TOTAL ITERATIONS, OF WHICH
   0 ARE SEVERE DISCONTINUITY ITERATIONS AND  1 ARE EQUILIBRIUM ITERATIONS.

 TIME INCREMENT COMPLETED  1.139E-03,  FRACTION OF STEP COMPLETED  3.317E-03
 STEP TIME COMPLETED       3.317E-03,  TOTAL TIME COMPLETED        3.317E-03


  INCREMENT     9 STARTS. ATTEMPT NUMBER  1, TIME INCREMENT  1.709E-03
 
	SYMMETRIC NEW DIRECT SPARSE SOLVER RUNNING ON
 	1 HOST x 1 MPI RANK PER HOST x 1 THREAD PER RANK
        NUMBER OF EQUATIONS:  7794
        NUMBER OF RHS:        1
        NUMBER OF FLOPS:      1.008e+09
        SOLVER ELAPSED TIME:  45ms

               CONVERGENCE CHECKS FOR EQUILIBRIUM ITERATION     1


 AVERAGE FORCE                      3.621E-03   TIME AVG. FORCE       1.128E-03
 LARGEST SCALED RESIDUAL FORCE      6.755E-08   AT NODE       1642   DOF  1
  CORRESPONDING RESIDUAL FORCE      6.755E-08
 LARGEST INCREMENT OF DISP.         8.843E-04   AT NODE        735   DOF  1
 LARGEST CORRECTION TO DISP.       -1.408E-06   AT NODE       1886   DOF  2
          THE FORCE     EQUILIBRIUM EQUATIONS HAVE CONVERGED
          TIME INCREMENT MAY NOW INCREASE TO    2.563E-03

 ITERATION SUMMARY FOR THE INCREMENT:   1 TOTAL ITERATIONS, OF WHICH
   0 ARE SEVERE DISCONTINUITY ITERATIONS AND  1 ARE EQUILIBRIUM ITERATIONS.

 TIME INCREMENT COMPLETED  1.709E-03,  FRACTION OF STEP COMPLETED  5.026E-03
 STEP TIME COMPLETED       5.026E-03,  TOTAL TIME COMPLETED        5.026E-03


  INCREMENT    10 STARTS. ATTEMPT NUMBER  1, TIME INCREMENT  2.563E-03
 
	SYMMETRIC NEW DIRECT SPARSE SOLVER RUNNING ON
 	1 HOST x 1 MPI RANK PER HOST x 1 THREAD PER RANK
        NUMBER OF EQUATIONS:  7794
        NUMBER OF RHS:        1
        NUMBER OF FLOPS:      1.008e+09
        SOLVER ELAPSED TIME:  42ms

               CONVERGENCE CHECKS FOR EQUILIBRIUM ITERATION     1


 AVERAGE FORCE                      5.463E-03   TIME AVG. FORCE       1.561E-03
 LARGEST SCALED RESIDUAL FORCE      2.258E-07   AT NODE       1642   DOF  1
  CORRESPONDING RESIDUAL FORCE      2.258E-07
 LARGEST INCREMENT OF DISP.         1.326E-03   AT NODE        735   DOF  1
 LARGEST CORRECTION TO DISP.       -3.155E-06   AT NODE       1886   DOF  2
          THE FORCE     EQUILIBRIUM EQUATIONS HAVE CONVERGED
          TIME INCREMENT MAY NOW INCREASE TO    3.844E-03

 ITERATION SUMMARY FOR THE INCREMENT:   1 TOTAL ITERATIONS, OF WHICH
   0 ARE SEVERE DISCONTINUITY ITERATIONS AND  1 ARE EQUILIBRIUM ITERATIONS.

 TIME INCREMENT COMPLETED  2.563E-03,  FRACTION OF STEP COMPLETED  7.589E-03
 STEP TIME COMPLETED       7.589E-03,  TOTAL TIME COMPLETED        7.589E-03


  INCREMENT    11 STARTS. ATTEMPT NUMBER  1, TIME INCREMENT  3.844E-03
 
	SYMMETRIC NEW DIRECT SPARSE SOLVER RUNNING ON
 	1 HOST x 1 MPI RANK PER HOST x 1 THREAD PER RANK
        NUMBER OF EQUATIONS:  7794
        NUMBER OF RHS:        1
        NUMBER OF FLOPS:      1.008e+09
        SOLVER ELAPSED TIME:  42ms

               CONVERGENCE CHECKS FOR EQUILIBRIUM ITERATION     1


 AVERAGE FORCE                      8.219E-03   TIME AVG. FORCE       2.167E-03
 LARGEST SCALED RESIDUAL FORCE      7.506E-07   AT NODE       1642   DOF  1
  CORRESPONDING RESIDUAL FORCE      7.506E-07
 LARGEST INCREMENT OF DISP.         1.990E-03   AT NODE        735   DOF  1
 LARGEST CORRECTION TO DISP.       -7.052E-06   AT NODE       1886   DOF  2
          THE FORCE     EQUILIBRIUM EQUATIONS HAVE CONVERGED
          TIME INCREMENT MAY NOW INCREASE TO    5.767E-03

 ITERATION SUMMARY FOR THE INCREMENT:   1 TOTAL ITERATIONS, OF WHICH
   0 ARE SEVERE DISCONTINUITY ITERATIONS AND  1 ARE EQUILIBRIUM ITERATIONS.

 TIME INCREMENT COMPLETED  3.844E-03,  FRACTION OF STEP COMPLETED  1.143E-02
 STEP TIME COMPLETED       1.143E-02,  TOTAL TIME COMPLETED        1.143E-02


  INCREMENT    12 STARTS. ATTEMPT NUMBER  1, TIME INCREMENT  5.767E-03
 
	SYMMETRIC NEW DIRECT SPARSE SOLVER RUNNING ON
 	1 HOST x 1 MPI RANK PER HOST x 1 THREAD PER RANK
        NUMBER OF EQUATIONS:  7794
        NUMBER OF RHS:        1
        NUMBER OF FLOPS:      1.008e+09
        SOLVER ELAPSED TIME:  42ms

               CONVERGENCE CHECKS FOR EQUILIBRIUM ITERATION     1


 AVERAGE FORCE                      1.234E-02   TIME AVG. FORCE       3.014E-03
 LARGEST SCALED RESIDUAL FORCE      2.477E-06   AT NODE       1642   DOF  1
  CORRESPONDING RESIDUAL FORCE      2.477E-06
 LARGEST INCREMENT OF DISP.         2.984E-03   AT NODE        735   DOF  1
 LARGEST CORRECTION TO DISP.       -1.571E-05   AT NODE       1886   DOF  2
          THE FORCE     EQUILIBRIUM EQUATIONS HAVE CONVERGED
          TIME INCREMENT MAY NOW INCREASE TO    8.650E-03

 ITERATION SUMMARY FOR THE INCREMENT:   1 TOTAL ITERATIONS, OF WHICH
   0 ARE SEVERE DISCONTINUITY ITERATIONS AND  1 ARE EQUILIBRIUM ITERATIONS.

 TIME INCREMENT COMPLETED  5.767E-03,  FRACTION OF STEP COMPLETED  1.720E-02
 STEP TIME COMPLETED       1.720E-02,  TOTAL TIME COMPLETED        1.720E-02


  INCREMENT    13 STARTS. ATTEMPT NUMBER  1, TIME INCREMENT  8.650E-03
 
	SYMMETRIC NEW DIRECT SPARSE SOLVER RUNNING ON
 	1 HOST x 1 MPI RANK PER HOST x 1 THREAD PER RANK
        NUMBER OF EQUATIONS:  7794
        NUMBER OF RHS:        1
        NUMBER OF FLOPS:      1.008e+09
        SOLVER ELAPSED TIME:  42ms

               CONVERGENCE CHECKS FOR EQUILIBRIUM ITERATION     1


 AVERAGE FORCE                      1.849E-02   TIME AVG. FORCE       4.205E-03
 LARGEST SCALED RESIDUAL FORCE      8.078E-06   AT NODE       1642   DOF  1
  CORRESPONDING RESIDUAL FORCE      8.078E-06
 LARGEST INCREMENT OF DISP.         4.476E-03   AT NODE        735   DOF  1
 LARGEST CORRECTION TO DISP.       -3.479E-05   AT NODE       1886   DOF  2
          THE FORCE     EQUILIBRIUM EQUATIONS HAVE CONVERGED
          TIME INCREMENT MAY NOW INCREASE TO    1.000E-02

 ITERATION SUMMARY FOR THE INCREMENT:   1 TOTAL ITERATIONS, OF WHICH
   0 ARE SEVERE DISCONTINUITY ITERATIONS AND  1 ARE EQUILIBRIUM ITERATIONS.

 TIME INCREMENT COMPLETED  8.650E-03,  FRACTION OF STEP COMPLETED  2.585E-02
 STEP TIME COMPLETED       2.585E-02,  TOTAL TIME COMPLETED        2.585E-02


  INCREMENT    14 STARTS. ATTEMPT NUMBER  1, TIME INCREMENT  1.000E-02
 
	SYMMETRIC NEW DIRECT SPARSE SOLVER RUNNING ON
 	1 HOST x 1 MPI RANK PER HOST x 1 THREAD PER RANK
        NUMBER OF EQUATIONS:  7794
        NUMBER OF RHS:        1
        NUMBER OF FLOPS:      1.008e+09
        SOLVER ELAPSED TIME:  43ms

               CONVERGENCE CHECKS FOR EQUILIBRIUM ITERATION     1


 AVERAGE FORCE                      2.557E-02   TIME AVG. FORCE       5.731E-03
 LARGEST SCALED RESIDUAL FORCE      3.109E-03   AT NODE       2470   DOF  3
  CORRESPONDING RESIDUAL FORCE      3.109E-03
 LARGEST INCREMENT OF DISP.         5.174E-03   AT NODE        735   DOF  1
 LARGEST CORRECTION TO DISP.       -5.013E-05   AT NODE       1886   DOF  2
          FORCE     EQUILIBRIUM NOT ACHIEVED WITHIN TOLERANCE.
 
	SYMMETRIC NEW DIRECT SPARSE SOLVER RUNNING ON
 	1 HOST x 1 MPI RANK PER HOST x 1 THREAD PER RANK
        NUMBER OF EQUATIONS:  7794
        NUMBER OF RHS:        1
        NUMBER OF FLOPS:      1.008e+09
        SOLVER ELAPSED TIME:  43ms

               CONVERGENCE CHECKS FOR EQUILIBRIUM ITERATION     2


 AVERAGE FORCE                      2.558E-02   TIME AVG. FORCE       5.731E-03
 LARGEST SCALED RESIDUAL FORCE      3.675E-05   AT NODE       2470   DOF  3
  CORRESPONDING RESIDUAL FORCE      3.675E-05
 LARGEST INCREMENT OF DISP.         5.174E-03   AT NODE        735   DOF  1
 LARGEST CORRECTION TO DISP.        4.863E-07   AT NODE       1886   DOF  2
          FORCE     EQUILIBRIUM NOT ACHIEVED WITHIN TOLERANCE.
 
	SYMMETRIC NEW DIRECT SPARSE SOLVER RUNNING ON
 	1 HOST x 1 MPI RANK PER HOST x 1 THREAD PER RANK
        NUMBER OF EQUATIONS:  7794
        NUMBER OF RHS:        1
        NUMBER OF FLOPS:      1.008e+09
        SOLVER ELAPSED TIME:  44ms

               CONVERGENCE CHECKS FOR EQUILIBRIUM ITERATION     3


 AVERAGE FORCE                      2.558E-02   TIME AVG. FORCE       5.731E-03
 LARGEST SCALED RESIDUAL FORCE     -1.443E-08   AT NODE       2470   DOF  1
  CORRESPONDING RESIDUAL FORCE     -1.443E-08
 LARGEST INCREMENT OF DISP.         5.174E-03   AT NODE        735   DOF  1
 LARGEST CORRECTION TO DISP.        3.259E-09   AT NODE         67   DOF  2
          THE FORCE     EQUILIBRIUM EQUATIONS HAVE CONVERGED

 ITERATION SUMMARY FOR THE INCREMENT:   3 TOTAL ITERATIONS, OF WHICH
   0 ARE SEVERE DISCONTINUITY ITERATIONS AND  3 ARE EQUILIBRIUM ITERATIONS.

 TIME INCREMENT COMPLETED  1.000E-02,  FRACTION OF STEP COMPLETED  3.585E-02
 STEP TIME COMPLETED       3.585E-02,  TOTAL TIME COMPLETED        3.585E-02


  INCREMENT    15 STARTS. ATTEMPT NUMBER  1, TIME INCREMENT  1.000E-02
 
	SYMMETRIC NEW DIRECT SPARSE SOLVER RUNNING ON
 	1 HOST x 1 MPI RANK PER HOST x 1 THREAD PER RANK
        NUMBER OF EQUATIONS:  7794
        NUMBER OF RHS:        1
        NUMBER OF FLOPS:      1.008e+09
        SOLVER ELAPSED TIME:  42ms

               CONVERGENCE CHECKS FOR EQUILIBRIUM ITERATION     1


 AVERAGE FORCE                      3.274E-02   TIME AVG. FORCE       7.532E-03
 LARGEST SCALED RESIDUAL FORCE      1.745E-02   AT NODE       2330   DOF  1
  CORRESPONDING RESIDUAL FORCE      1.745E-02
 LARGEST INCREMENT OF DISP.         5.174E-03   AT NODE        735   DOF  1
 LARGEST CORRECTION TO DISP.        4.828E-05   AT NODE       1200   DOF  3
          FORCE     EQUILIBRIUM NOT ACHIEVED WITHIN TOLERANCE.
 
	SYMMETRIC NEW DIRECT SPARSE SOLVER RUNNING ON
 	1 HOST x 1 MPI RANK PER HOST x 1 THREAD PER RANK
        NUMBER OF EQUATIONS:  7794
        NUMBER OF RHS:        1
        NUMBER OF FLOPS:      1.008e+09
        SOLVER ELAPSED TIME:  43ms

               CONVERGENCE CHECKS FOR EQUILIBRIUM ITERATION     2


 AVERAGE FORCE                      3.280E-02   TIME AVG. FORCE       7.536E-03
 LARGEST SCALED RESIDUAL FORCE     -9.511E-04   AT NODE       2510   DOF  2
  CORRESPONDING RESIDUAL FORCE     -9.511E-04
 LARGEST INCREMENT OF DISP.         5.175E-03   AT NODE        735   DOF  1
 LARGEST CORRECTION TO DISP.        1.250E-05   AT NODE         67   DOF  2
          FORCE     EQUILIBRIUM NOT ACHIEVED WITHIN TOLERANCE.
 
	SYMMETRIC NEW DIRECT SPARSE SOLVER RUNNING ON
 	1 HOST x 1 MPI RANK PER HOST x 1 THREAD PER RANK
        NUMBER OF EQUATIONS:  7794
        NUMBER OF RHS:        1
        NUMBER OF FLOPS:      1.008e+09
        SOLVER ELAPSED TIME:  44ms

               CONVERGENCE CHECKS FOR EQUILIBRIUM ITERATION     3


 AVERAGE FORCE                      3.280E-02   TIME AVG. FORCE       7.536E-03
 LARGEST SCALED RESIDUAL FORCE     -1.659E-05   AT NODE       2510   DOF  2
  CORRESPONDING RESIDUAL FORCE     -1.659E-05
 LARGEST INCREMENT OF DISP.         5.175E-03   AT NODE        735   DOF  1
 LARGEST CORRECTION TO DISP.        9.773E-07   AT NODE         67   DOF  2
          THE FORCE     EQUILIBRIUM EQUATIONS HAVE CONVERGED

 ITERATION SUMMARY FOR THE INCREMENT:   3 TOTAL ITERATIONS, OF WHICH
   0 ARE SEVERE DISCONTINUITY ITERATIONS AND  3 ARE EQUILIBRIUM ITERATIONS.

 TIME INCREMENT COMPLETED  1.000E-02,  FRACTION OF STEP COMPLETED  4.585E-02
 STEP TIME COMPLETED       4.585E-02,  TOTAL TIME COMPLETED        4.585E-02


  INCREMENT    16 STARTS. ATTEMPT NUMBER  1, TIME INCREMENT  1.000E-02
 
	SYMMETRIC NEW DIRECT SPARSE SOLVER RUNNING ON
 	1 HOST x 1 MPI RANK PER HOST x 1 THREAD PER RANK
        NUMBER OF EQUATIONS:  7794
        NUMBER OF RHS:        1
        NUMBER OF FLOPS:      1.008e+09
        SOLVER ELAPSED TIME:  42ms

               CONVERGENCE CHECKS FOR EQUILIBRIUM ITERATION     1


 AVERAGE FORCE                      4.014E-02   TIME AVG. FORCE       9.574E-03
 LARGEST SCALED RESIDUAL FORCE      2.553E-02   AT NODE       2612   DOF  3
  CORRESPONDING RESIDUAL FORCE      2.553E-02
 LARGEST INCREMENT OF DISP.         5.180E-03   AT NODE        735   DOF  1
 LARGEST CORRECTION TO DISP.        1.677E-04   AT NODE         67   DOF  2
          FORCE     EQUILIBRIUM NOT ACHIEVED WITHIN TOLERANCE.
 
	SYMMETRIC NEW DIRECT SPARSE SOLVER RUNNING ON
 	1 HOST x 1 MPI RANK PER HOST x 1 THREAD PER RANK
        NUMBER OF EQUATIONS:  7794
        NUMBER OF RHS:        1
        NUMBER OF FLOPS:      1.008e+09
        SOLVER ELAPSED TIME:  42ms

               CONVERGENCE CHECKS FOR EQUILIBRIUM ITERATION     2


 AVERAGE FORCE                      4.042E-02   TIME AVG. FORCE       9.591E-03
 LARGEST SCALED RESIDUAL FORCE      5.289E-03   AT NODE       2611   DOF  1
  CORRESPONDING RESIDUAL FORCE      5.289E-03
 LARGEST INCREMENT OF DISP.         5.181E-03   AT NODE        735   DOF  1
 LARGEST CORRECTION TO DISP.        8.453E-05   AT NODE         67   DOF  2
          FORCE     EQUILIBRIUM NOT ACHIEVED WITHIN TOLERANCE.
 
	SYMMETRIC NEW DIRECT SPARSE SOLVER RUNNING ON
 	1 HOST x 1 MPI RANK PER HOST x 1 THREAD PER RANK
        NUMBER OF EQUATIONS:  7794
        NUMBER OF RHS:        1
        NUMBER OF FLOPS:      1.008e+09
        SOLVER ELAPSED TIME:  41ms

               CONVERGENCE CHECKS FOR EQUILIBRIUM ITERATION     3


 AVERAGE FORCE                      4.045E-02   TIME AVG. FORCE       9.593E-03
 LARGEST SCALED RESIDUAL FORCE      3.028E-04   AT NODE        267   DOF  1
  CORRESPONDING RESIDUAL FORCE      3.028E-04
 LARGEST INCREMENT OF DISP.         5.181E-03   AT NODE        735   DOF  1
 LARGEST CORRECTION TO DISP.        9.156E-06   AT NODE         67   DOF  2
          FORCE     EQUILIBRIUM NOT ACHIEVED WITHIN TOLERANCE.
 
	SYMMETRIC NEW DIRECT SPARSE SOLVER RUNNING ON
 	1 HOST x 1 MPI RANK PER HOST x 1 THREAD PER RANK
        NUMBER OF EQUATIONS:  7794
        NUMBER OF RHS:        1
        NUMBER OF FLOPS:      1.008e+09
        SOLVER ELAPSED TIME:  44ms

               CONVERGENCE CHECKS FOR EQUILIBRIUM ITERATION     4


 AVERAGE FORCE                      4.045E-02   TIME AVG. FORCE       9.593E-03
 LARGEST SCALED RESIDUAL FORCE      6.300E-07   AT NODE        267   DOF  1
  CORRESPONDING RESIDUAL FORCE      6.300E-07
 LARGEST INCREMENT OF DISP.         5.181E-03   AT NODE        735   DOF  1
 LARGEST CORRECTION TO DISP.       -7.607E-08   AT NODE         85   DOF  1
          THE FORCE     EQUILIBRIUM EQUATIONS HAVE CONVERGED

 ITERATION SUMMARY FOR THE INCREMENT:   4 TOTAL ITERATIONS, OF WHICH
   0 ARE SEVERE DISCONTINUITY ITERATIONS AND  4 ARE EQUILIBRIUM ITERATIONS.

 TIME INCREMENT COMPLETED  1.000E-02,  FRACTION OF STEP COMPLETED  5.585E-02
 STEP TIME COMPLETED       5.585E-02,  TOTAL TIME COMPLETED        5.585E-02


  INCREMENT    17 STARTS. ATTEMPT NUMBER  1, TIME INCREMENT  1.000E-02
 
	SYMMETRIC NEW DIRECT SPARSE SOLVER RUNNING ON
 	1 HOST x 1 MPI RANK PER HOST x 1 THREAD PER RANK
        NUMBER OF EQUATIONS:  7794
        NUMBER OF RHS:        1
        NUMBER OF FLOPS:      1.008e+09
        SOLVER ELAPSED TIME:  42ms

               CONVERGENCE CHECKS FOR EQUILIBRIUM ITERATION     1


 AVERAGE FORCE                      4.820E-02   TIME AVG. FORCE       1.186E-02
 LARGEST SCALED RESIDUAL FORCE     -8.208E-02   AT NODE       2428   DOF  3
  CORRESPONDING RESIDUAL FORCE     -8.208E-02
 LARGEST INCREMENT OF DISP.         5.196E-03   AT NODE        735   DOF  1
 LARGEST CORRECTION TO DISP.        3.862E-04   AT NODE         67   DOF  2
          FORCE     EQUILIBRIUM NOT ACHIEVED WITHIN TOLERANCE.
 
	SYMMETRIC NEW DIRECT SPARSE SOLVER RUNNING ON
 	1 HOST x 1 MPI RANK PER HOST x 1 THREAD PER RANK
        NUMBER OF EQUATIONS:  7794
        NUMBER OF RHS:        1
        NUMBER OF FLOPS:      1.008e+09
        SOLVER ELAPSED TIME:  44ms

               CONVERGENCE CHECKS FOR EQUILIBRIUM ITERATION     2


 AVERAGE FORCE                      4.850E-02   TIME AVG. FORCE       1.188E-02
 LARGEST SCALED RESIDUAL FORCE      4.286E-02   AT NODE       2681   DOF  3
  CORRESPONDING RESIDUAL FORCE      4.286E-02
 LARGEST INCREMENT OF DISP.         5.202E-03   AT NODE        735   DOF  1
 LARGEST CORRECTION TO DISP.       -2.320E-04   AT NODE        775   DOF  1
          FORCE     EQUILIBRIUM NOT ACHIEVED WITHIN TOLERANCE.
 
	SYMMETRIC NEW DIRECT SPARSE SOLVER RUNNING ON
 	1 HOST x 1 MPI RANK PER HOST x 1 THREAD PER RANK
        NUMBER OF EQUATIONS:  7794
        NUMBER OF RHS:        1
        NUMBER OF FLOPS:      1.008e+09
        SOLVER ELAPSED TIME:  42ms

               CONVERGENCE CHECKS FOR EQUILIBRIUM ITERATION     3


 AVERAGE FORCE                      4.849E-02   TIME AVG. FORCE       1.188E-02
 LARGEST SCALED RESIDUAL FORCE     -3.310E-03   AT NODE       2272   DOF  3
  CORRESPONDING RESIDUAL FORCE     -3.310E-03
 LARGEST INCREMENT OF DISP.         5.202E-03   AT NODE        735   DOF  1
 LARGEST CORRECTION TO DISP.       -5.550E-05   AT NODE         96   DOF  1
          FORCE     EQUILIBRIUM NOT ACHIEVED WITHIN TOLERANCE.
 
	SYMMETRIC NEW DIRECT SPARSE SOLVER RUNNING ON
 	1 HOST x 1 MPI RANK PER HOST x 1 THREAD PER RANK
        NUMBER OF EQUATIONS:  7794
        NUMBER OF RHS:        1
        NUMBER OF FLOPS:      1.008e+09
        SOLVER ELAPSED TIME:  42ms

               CONVERGENCE CHECKS FOR EQUILIBRIUM ITERATION     4


 AVERAGE FORCE                      4.849E-02   TIME AVG. FORCE       1.188E-02
 LARGEST SCALED RESIDUAL FORCE     -5.371E-05   AT NODE       2662   DOF  3
  CORRESPONDING RESIDUAL FORCE     -5.371E-05
 LARGEST INCREMENT OF DISP.         5.202E-03   AT NODE        735   DOF  1
 LARGEST CORRECTION TO DISP.       -2.624E-06   AT NODE        249   DOF  1
          THE FORCE     EQUILIBRIUM EQUATIONS HAVE CONVERGED

 ITERATION SUMMARY FOR THE INCREMENT:   4 TOTAL ITERATIONS, OF WHICH
   0 ARE SEVERE DISCONTINUITY ITERATIONS AND  4 ARE EQUILIBRIUM ITERATIONS.

 TIME INCREMENT COMPLETED  1.000E-02,  FRACTION OF STEP COMPLETED  6.585E-02
 STEP TIME COMPLETED       6.585E-02,  TOTAL TIME COMPLETED        6.585E-02


  INCREMENT    18 STARTS. ATTEMPT NUMBER  1, TIME INCREMENT  1.000E-02
 
	SYMMETRIC NEW DIRECT SPARSE SOLVER RUNNING ON
 	1 HOST x 1 MPI RANK PER HOST x 1 THREAD PER RANK
        NUMBER OF EQUATIONS:  7794
        NUMBER OF RHS:        1
        NUMBER OF FLOPS:      1.008e+09
        SOLVER ELAPSED TIME:  43ms

               CONVERGENCE CHECKS FOR EQUILIBRIUM ITERATION     1


 AVERAGE FORCE                      5.683E-02   TIME AVG. FORCE       1.438E-02
 LARGEST SCALED RESIDUAL FORCE     -9.102E-02   AT NODE       2343   DOF  3
  CORRESPONDING RESIDUAL FORCE     -9.102E-02
 LARGEST INCREMENT OF DISP.         5.225E-03   AT NODE        735   DOF  1
 LARGEST CORRECTION TO DISP.       -9.237E-04   AT NODE         67   DOF  1
          FORCE     EQUILIBRIUM NOT ACHIEVED WITHIN TOLERANCE.
 
	SYMMETRIC NEW DIRECT SPARSE SOLVER RUNNING ON
 	1 HOST x 1 MPI RANK PER HOST x 1 THREAD PER RANK
        NUMBER OF EQUATIONS:  7794
        NUMBER OF RHS:        1
        NUMBER OF FLOPS:      1.008e+09
        SOLVER ELAPSED TIME:  42ms

               CONVERGENCE CHECKS FOR EQUILIBRIUM ITERATION     2


 AVERAGE FORCE                      5.672E-02   TIME AVG. FORCE       1.437E-02
 LARGEST SCALED RESIDUAL FORCE      1.735E-02   AT NODE       2680   DOF  3
  CORRESPONDING RESIDUAL FORCE      1.735E-02
 LARGEST INCREMENT OF DISP.         5.229E-03   AT NODE        735   DOF  1
 LARGEST CORRECTION TO DISP.       -3.611E-04   AT NODE         96   DOF  1
          FORCE     EQUILIBRIUM NOT ACHIEVED WITHIN TOLERANCE.
 
	SYMMETRIC NEW DIRECT SPARSE SOLVER RUNNING ON
 	1 HOST x 1 MPI RANK PER HOST x 1 THREAD PER RANK
        NUMBER OF EQUATIONS:  7794
        NUMBER OF RHS:        1
        NUMBER OF FLOPS:      1.008e+09
        SOLVER ELAPSED TIME:  42ms

               CONVERGENCE CHECKS FOR EQUILIBRIUM ITERATION     3


 AVERAGE FORCE                      5.667E-02   TIME AVG. FORCE       1.437E-02
 LARGEST SCALED RESIDUAL FORCE     -9.940E-04   AT NODE        630   DOF  2
  CORRESPONDING RESIDUAL FORCE     -9.940E-04
 LARGEST INCREMENT OF DISP.         5.229E-03   AT NODE        735   DOF  1
 LARGEST CORRECTION TO DISP.       -1.511E-05   AT NODE       1907   DOF  2
          FORCE     EQUILIBRIUM NOT ACHIEVED WITHIN TOLERANCE.
 
	SYMMETRIC NEW DIRECT SPARSE SOLVER RUNNING ON
 	1 HOST x 1 MPI RANK PER HOST x 1 THREAD PER RANK
        NUMBER OF EQUATIONS:  7794
        NUMBER OF RHS:        1
        NUMBER OF FLOPS:      1.008e+09
        SOLVER ELAPSED TIME:  42ms

               CONVERGENCE CHECKS FOR EQUILIBRIUM ITERATION     4


 AVERAGE FORCE                      5.667E-02   TIME AVG. FORCE       1.437E-02
 LARGEST SCALED RESIDUAL FORCE     -1.444E-05   AT NODE        630   DOF  2
  CORRESPONDING RESIDUAL FORCE     -1.444E-05
 LARGEST INCREMENT OF DISP.         5.229E-03   AT NODE        735   DOF  1
 LARGEST CORRECTION TO DISP.       -4.211E-07   AT NODE       1883   DOF  1
          THE FORCE     EQUILIBRIUM EQUATIONS HAVE CONVERGED

 ITERATION SUMMARY FOR THE INCREMENT:   4 TOTAL ITERATIONS, OF WHICH
   0 ARE SEVERE DISCONTINUITY ITERATIONS AND  4 ARE EQUILIBRIUM ITERATIONS.

 TIME INCREMENT COMPLETED  1.000E-02,  FRACTION OF STEP COMPLETED  7.585E-02
 STEP TIME COMPLETED       7.585E-02,  TOTAL TIME COMPLETED        7.585E-02


  INCREMENT    19 STARTS. ATTEMPT NUMBER  1, TIME INCREMENT  1.000E-02
 
	SYMMETRIC NEW DIRECT SPARSE SOLVER RUNNING ON
 	1 HOST x 1 MPI RANK PER HOST x 1 THREAD PER RANK
        NUMBER OF EQUATIONS:  7794
        NUMBER OF RHS:        1
        NUMBER OF FLOPS:      1.008e+09
        SOLVER ELAPSED TIME:  44ms

               CONVERGENCE CHECKS FOR EQUILIBRIUM ITERATION     1


 AVERAGE FORCE                      6.498E-02   TIME AVG. FORCE       1.703E-02
 LARGEST SCALED RESIDUAL FORCE      7.316E-02   AT NODE       1946   DOF  1
  CORRESPONDING RESIDUAL FORCE      7.316E-02
 LARGEST INCREMENT OF DISP.         5.247E-03   AT NODE        735   DOF  1
 LARGEST CORRECTION TO DISP.       -1.018E-03   AT NODE         93   DOF  1
          FORCE     EQUILIBRIUM NOT ACHIEVED WITHIN TOLERANCE.
 
	SYMMETRIC NEW DIRECT SPARSE SOLVER RUNNING ON
 	1 HOST x 1 MPI RANK PER HOST x 1 THREAD PER RANK
        NUMBER OF EQUATIONS:  7794
        NUMBER OF RHS:        1
        NUMBER OF FLOPS:      1.008e+09
        SOLVER ELAPSED TIME:  63ms

               CONVERGENCE CHECKS FOR EQUILIBRIUM ITERATION     2


 AVERAGE FORCE                      6.477E-02   TIME AVG. FORCE       1.702E-02
 LARGEST SCALED RESIDUAL FORCE      1.658E-02   AT NODE       1598   DOF  1
  CORRESPONDING RESIDUAL FORCE      1.658E-02
 LARGEST INCREMENT OF DISP.         5.247E-03   AT NODE        735   DOF  1
 LARGEST CORRECTION TO DISP.       -5.888E-05   AT NODE         73   DOF  1
          FORCE     EQUILIBRIUM NOT ACHIEVED WITHIN TOLERANCE.
 
	SYMMETRIC NEW DIRECT SPARSE SOLVER RUNNING ON
 	1 HOST x 1 MPI RANK PER HOST x 1 THREAD PER RANK
        NUMBER OF EQUATIONS:  7794
        NUMBER OF RHS:        1
        NUMBER OF FLOPS:      1.008e+09
        SOLVER ELAPSED TIME:  42ms

               CONVERGENCE CHECKS FOR EQUILIBRIUM ITERATION     3


 AVERAGE FORCE                      6.476E-02   TIME AVG. FORCE       1.702E-02
 LARGEST SCALED RESIDUAL FORCE     -2.635E-04   AT NODE       2580   DOF  1
  CORRESPONDING RESIDUAL FORCE     -2.635E-04
 LARGEST INCREMENT OF DISP.         5.247E-03   AT NODE        735   DOF  1
 LARGEST CORRECTION TO DISP.       -1.832E-06   AT NODE       1432   DOF  1
          FORCE     EQUILIBRIUM NOT ACHIEVED WITHIN TOLERANCE.
 
	SYMMETRIC NEW DIRECT SPARSE SOLVER RUNNING ON
 	1 HOST x 1 MPI RANK PER HOST x 1 THREAD PER RANK
        NUMBER OF EQUATIONS:  7794
        NUMBER OF RHS:        1
        NUMBER OF FLOPS:      1.008e+09
        SOLVER ELAPSED TIME:  42ms

               CONVERGENCE CHECKS FOR EQUILIBRIUM ITERATION     4


 AVERAGE FORCE                      6.476E-02   TIME AVG. FORCE       1.702E-02
 LARGEST SCALED RESIDUAL FORCE     -1.601E-06   AT NODE       1486   DOF  1
  CORRESPONDING RESIDUAL FORCE     -1.601E-06
 LARGEST INCREMENT OF DISP.         5.247E-03   AT NODE        735   DOF  1
 LARGEST CORRECTION TO DISP.       -5.698E-08   AT NODE         67   DOF  1
          THE FORCE     EQUILIBRIUM EQUATIONS HAVE CONVERGED

 ITERATION SUMMARY FOR THE INCREMENT:   4 TOTAL ITERATIONS, OF WHICH
   0 ARE SEVERE DISCONTINUITY ITERATIONS AND  4 ARE EQUILIBRIUM ITERATIONS.

 TIME INCREMENT COMPLETED  1.000E-02,  FRACTION OF STEP COMPLETED  8.585E-02
 STEP TIME COMPLETED       8.585E-02,  TOTAL TIME COMPLETED        8.585E-02


  INCREMENT    20 STARTS. ATTEMPT NUMBER  1, TIME INCREMENT  1.000E-02
 
	SYMMETRIC NEW DIRECT SPARSE SOLVER RUNNING ON
 	1 HOST x 1 MPI RANK PER HOST x 1 THREAD PER RANK
        NUMBER OF EQUATIONS:  7794
        NUMBER OF RHS:        1
        NUMBER OF FLOPS:      1.008e+09
        SOLVER ELAPSED TIME:  41ms

               CONVERGENCE CHECKS FOR EQUILIBRIUM ITERATION     1


 AVERAGE FORCE                      7.246E-02   TIME AVG. FORCE       1.979E-02
 LARGEST SCALED RESIDUAL FORCE      4.620E-02   AT NODE       1947   DOF  1
  CORRESPONDING RESIDUAL FORCE      4.620E-02
 LARGEST INCREMENT OF DISP.         5.257E-03   AT NODE         30   DOF  1
 LARGEST CORRECTION TO DISP.       -5.570E-04   AT NODE         93   DOF  1
          FORCE     EQUILIBRIUM NOT ACHIEVED WITHIN TOLERANCE.
 
	SYMMETRIC NEW DIRECT SPARSE SOLVER RUNNING ON
 	1 HOST x 1 MPI RANK PER HOST x 1 THREAD PER RANK
        NUMBER OF EQUATIONS:  7794
        NUMBER OF RHS:        1
        NUMBER OF FLOPS:      1.008e+09
        SOLVER ELAPSED TIME:  42ms

               CONVERGENCE CHECKS FOR EQUILIBRIUM ITERATION     2


 AVERAGE FORCE                      7.235E-02   TIME AVG. FORCE       1.979E-02
 LARGEST SCALED RESIDUAL FORCE      5.585E-03   AT NODE       2178   DOF  1
  CORRESPONDING RESIDUAL FORCE      5.585E-03
 LARGEST INCREMENT OF DISP.         5.257E-03   AT NODE         30   DOF  1
 LARGEST CORRECTION TO DISP.        3.173E-05   AT NODE        224   DOF  1
          FORCE     EQUILIBRIUM NOT ACHIEVED WITHIN TOLERANCE.
 
	SYMMETRIC NEW DIRECT SPARSE SOLVER RUNNING ON
 	1 HOST x 1 MPI RANK PER HOST x 1 THREAD PER RANK
        NUMBER OF EQUATIONS:  7794
        NUMBER OF RHS:        1
        NUMBER OF FLOPS:      1.008e+09
        SOLVER ELAPSED TIME:  42ms

               CONVERGENCE CHECKS FOR EQUILIBRIUM ITERATION     3


 AVERAGE FORCE                      7.235E-02   TIME AVG. FORCE       1.979E-02
 LARGEST SCALED RESIDUAL FORCE     -4.778E-05   AT NODE       2077   DOF  1
  CORRESPONDING RESIDUAL FORCE     -4.778E-05
 LARGEST INCREMENT OF DISP.         5.257E-03   AT NODE         30   DOF  1
 LARGEST CORRECTION TO DISP.       -2.265E-06   AT NODE       1632   DOF  1
          THE FORCE     EQUILIBRIUM EQUATIONS HAVE CONVERGED

 ITERATION SUMMARY FOR THE INCREMENT:   3 TOTAL ITERATIONS, OF WHICH
   0 ARE SEVERE DISCONTINUITY ITERATIONS AND  3 ARE EQUILIBRIUM ITERATIONS.

 TIME INCREMENT COMPLETED  1.000E-02,  FRACTION OF STEP COMPLETED  9.585E-02
 STEP TIME COMPLETED       9.585E-02,  TOTAL TIME COMPLETED        9.585E-02


  INCREMENT    21 STARTS. ATTEMPT NUMBER  1, TIME INCREMENT  1.000E-02
 
	SYMMETRIC NEW DIRECT SPARSE SOLVER RUNNING ON
 	1 HOST x 1 MPI RANK PER HOST x 1 THREAD PER RANK
        NUMBER OF EQUATIONS:  7794
        NUMBER OF RHS:        1
        NUMBER OF FLOPS:      1.008e+09
        SOLVER ELAPSED TIME:  41ms

               CONVERGENCE CHECKS FOR EQUILIBRIUM ITERATION     1


 AVERAGE FORCE                      7.952E-02   TIME AVG. FORCE       2.263E-02
 LARGEST SCALED RESIDUAL FORCE      3.305E-02   AT NODE       2161   DOF  3
  CORRESPONDING RESIDUAL FORCE      3.305E-02
 LARGEST INCREMENT OF DISP.         5.264E-03   AT NODE         30   DOF  1
 LARGEST CORRECTION TO DISP.       -2.735E-04   AT NODE       1529   DOF  1
          FORCE     EQUILIBRIUM NOT ACHIEVED WITHIN TOLERANCE.
 
	SYMMETRIC NEW DIRECT SPARSE SOLVER RUNNING ON
 	1 HOST x 1 MPI RANK PER HOST x 1 THREAD PER RANK
        NUMBER OF EQUATIONS:  7794
        NUMBER OF RHS:        1
        NUMBER OF FLOPS:      1.008e+09
        SOLVER ELAPSED TIME:  43ms

               CONVERGENCE CHECKS FOR EQUILIBRIUM ITERATION     2


 AVERAGE FORCE                      7.947E-02   TIME AVG. FORCE       2.263E-02
 LARGEST SCALED RESIDUAL FORCE     -7.662E-03   AT NODE       1790   DOF  2
  CORRESPONDING RESIDUAL FORCE     -7.662E-03
 LARGEST INCREMENT OF DISP.         5.264E-03   AT NODE         30   DOF  1
 LARGEST CORRECTION TO DISP.        1.809E-05   AT NODE       2461   DOF  1
          FORCE     EQUILIBRIUM NOT ACHIEVED WITHIN TOLERANCE.
 
	SYMMETRIC NEW DIRECT SPARSE SOLVER RUNNING ON
 	1 HOST x 1 MPI RANK PER HOST x 1 THREAD PER RANK
        NUMBER OF EQUATIONS:  7794
        NUMBER OF RHS:        1
        NUMBER OF FLOPS:      1.008e+09
        SOLVER ELAPSED TIME:  41ms

               CONVERGENCE CHECKS FOR EQUILIBRIUM ITERATION     3


 AVERAGE FORCE                      7.947E-02   TIME AVG. FORCE       2.263E-02
 LARGEST SCALED RESIDUAL FORCE      1.183E-04   AT NODE       2165   DOF  2
  CORRESPONDING RESIDUAL FORCE      1.183E-04
 LARGEST INCREMENT OF DISP.         5.264E-03   AT NODE         30   DOF  1
 LARGEST CORRECTION TO DISP.       -1.312E-06   AT NODE       2559   DOF  1
          FORCE     EQUILIBRIUM NOT ACHIEVED WITHIN TOLERANCE.
 
	SYMMETRIC NEW DIRECT SPARSE SOLVER RUNNING ON
 	1 HOST x 1 MPI RANK PER HOST x 1 THREAD PER RANK
        NUMBER OF EQUATIONS:  7794
        NUMBER OF RHS:        1
        NUMBER OF FLOPS:      1.008e+09
        SOLVER ELAPSED TIME:  42ms

               CONVERGENCE CHECKS FOR EQUILIBRIUM ITERATION     4


 AVERAGE FORCE                      7.947E-02   TIME AVG. FORCE       2.263E-02
 LARGEST SCALED RESIDUAL FORCE      9.906E-07   AT NODE       2698   DOF  3
  CORRESPONDING RESIDUAL FORCE      9.906E-07
 LARGEST INCREMENT OF DISP.         5.264E-03   AT NODE         30   DOF  1
 LARGEST CORRECTION TO DISP.        1.256E-07   AT NODE       2687   DOF  1
          THE FORCE     EQUILIBRIUM EQUATIONS HAVE CONVERGED

 ITERATION SUMMARY FOR THE INCREMENT:   4 TOTAL ITERATIONS, OF WHICH
   0 ARE SEVERE DISCONTINUITY ITERATIONS AND  4 ARE EQUILIBRIUM ITERATIONS.

 TIME INCREMENT COMPLETED  1.000E-02,  FRACTION OF STEP COMPLETED  0.106    
 STEP TIME COMPLETED       0.106    ,  TOTAL TIME COMPLETED        0.106    


  INCREMENT    22 STARTS. ATTEMPT NUMBER  1, TIME INCREMENT  1.000E-02
 
	SYMMETRIC NEW DIRECT SPARSE SOLVER RUNNING ON
 	1 HOST x 1 MPI RANK PER HOST x 1 THREAD PER RANK
        NUMBER OF EQUATIONS:  7794
        NUMBER OF RHS:        1
        NUMBER OF FLOPS:      1.008e+09
        SOLVER ELAPSED TIME:  41ms

               CONVERGENCE CHECKS FOR EQUILIBRIUM ITERATION     1


 AVERAGE FORCE                      8.627E-02   TIME AVG. FORCE       2.552E-02
 LARGEST SCALED RESIDUAL FORCE     -5.760E-02   AT NODE       2178   DOF  1
  CORRESPONDING RESIDUAL FORCE     -5.760E-02
 LARGEST INCREMENT OF DISP.         5.269E-03   AT NODE         30   DOF  1
 LARGEST CORRECTION TO DISP.       -1.587E-04   AT NODE        584   DOF  1
          FORCE     EQUILIBRIUM NOT ACHIEVED WITHIN TOLERANCE.
 
	SYMMETRIC NEW DIRECT SPARSE SOLVER RUNNING ON
 	1 HOST x 1 MPI RANK PER HOST x 1 THREAD PER RANK
        NUMBER OF EQUATIONS:  7794
        NUMBER OF RHS:        1
        NUMBER OF FLOPS:      1.008e+09
        SOLVER ELAPSED TIME:  42ms

               CONVERGENCE CHECKS FOR EQUILIBRIUM ITERATION     2


 AVERAGE FORCE                      8.625E-02   TIME AVG. FORCE       2.552E-02
 LARGEST SCALED RESIDUAL FORCE      1.827E-02   AT NODE       2178   DOF  1
  CORRESPONDING RESIDUAL FORCE      1.827E-02
 LARGEST INCREMENT OF DISP.         5.269E-03   AT NODE         30   DOF  1
 LARGEST CORRECTION TO DISP.        1.007E-05   AT NODE        149   DOF  3
          FORCE     EQUILIBRIUM NOT ACHIEVED WITHIN TOLERANCE.
 
	SYMMETRIC NEW DIRECT SPARSE SOLVER RUNNING ON
 	1 HOST x 1 MPI RANK PER HOST x 1 THREAD PER RANK
        NUMBER OF EQUATIONS:  7794
        NUMBER OF RHS:        1
        NUMBER OF FLOPS:      1.008e+09
        SOLVER ELAPSED TIME:  41ms

               CONVERGENCE CHECKS FOR EQUILIBRIUM ITERATION     3


 AVERAGE FORCE                      8.624E-02   TIME AVG. FORCE       2.552E-02
 LARGEST SCALED RESIDUAL FORCE     -1.584E-04   AT NODE       2077   DOF  2
  CORRESPONDING RESIDUAL FORCE     -1.584E-04
 LARGEST INCREMENT OF DISP.         5.269E-03   AT NODE         30   DOF  1
 LARGEST CORRECTION TO DISP.       -1.024E-06   AT NODE       1599   DOF  1
          FORCE     EQUILIBRIUM NOT ACHIEVED WITHIN TOLERANCE.
 
	SYMMETRIC NEW DIRECT SPARSE SOLVER RUNNING ON
 	1 HOST x 1 MPI RANK PER HOST x 1 THREAD PER RANK
        NUMBER OF EQUATIONS:  7794
        NUMBER OF RHS:        1
        NUMBER OF FLOPS:      1.008e+09
        SOLVER ELAPSED TIME:  42ms

               CONVERGENCE CHECKS FOR EQUILIBRIUM ITERATION     4


 AVERAGE FORCE                      8.624E-02   TIME AVG. FORCE       2.552E-02
 LARGEST SCALED RESIDUAL FORCE     -6.600E-07   AT NODE       2580   DOF  1
  CORRESPONDING RESIDUAL FORCE     -6.600E-07
 LARGEST INCREMENT OF DISP.         5.269E-03   AT NODE         30   DOF  1
 LARGEST CORRECTION TO DISP.        3.214E-08   AT NODE        236   DOF  1
          THE FORCE     EQUILIBRIUM EQUATIONS HAVE CONVERGED

 ITERATION SUMMARY FOR THE INCREMENT:   4 TOTAL ITERATIONS, OF WHICH
   0 ARE SEVERE DISCONTINUITY ITERATIONS AND  4 ARE EQUILIBRIUM ITERATIONS.

 TIME INCREMENT COMPLETED  1.000E-02,  FRACTION OF STEP COMPLETED  0.116    
 STEP TIME COMPLETED       0.116    ,  TOTAL TIME COMPLETED        0.116    


  INCREMENT    23 STARTS. ATTEMPT NUMBER  1, TIME INCREMENT  1.000E-02
 
	SYMMETRIC NEW DIRECT SPARSE SOLVER RUNNING ON
 	1 HOST x 1 MPI RANK PER HOST x 1 THREAD PER RANK
        NUMBER OF EQUATIONS:  7794
        NUMBER OF RHS:        1
        NUMBER OF FLOPS:      1.008e+09
        SOLVER ELAPSED TIME:  42ms

               CONVERGENCE CHECKS FOR EQUILIBRIUM ITERATION     1


 AVERAGE FORCE                      9.276E-02   TIME AVG. FORCE       2.844E-02
 LARGEST SCALED RESIDUAL FORCE     -3.953E-02   AT NODE       2660   DOF  1
  CORRESPONDING RESIDUAL FORCE     -3.953E-02
 LARGEST INCREMENT OF DISP.         5.273E-03   AT NODE         30   DOF  1
 LARGEST CORRECTION TO DISP.       -1.071E-04   AT NODE        584   DOF  1
          FORCE     EQUILIBRIUM NOT ACHIEVED WITHIN TOLERANCE.
 
	SYMMETRIC NEW DIRECT SPARSE SOLVER RUNNING ON
 	1 HOST x 1 MPI RANK PER HOST x 1 THREAD PER RANK
        NUMBER OF EQUATIONS:  7794
        NUMBER OF RHS:        1
        NUMBER OF FLOPS:      1.008e+09
        SOLVER ELAPSED TIME:  42ms

               CONVERGENCE CHECKS FOR EQUILIBRIUM ITERATION     2


 AVERAGE FORCE                      9.274E-02   TIME AVG. FORCE       2.844E-02
 LARGEST SCALED RESIDUAL FORCE     -3.332E-03   AT NODE       2660   DOF  1
  CORRESPONDING RESIDUAL FORCE     -3.332E-03
 LARGEST INCREMENT OF DISP.         5.273E-03   AT NODE         30   DOF  1
 LARGEST CORRECTION TO DISP.        7.007E-06   AT NODE        121   DOF  3
          FORCE     EQUILIBRIUM NOT ACHIEVED WITHIN TOLERANCE.
 
	SYMMETRIC NEW DIRECT SPARSE SOLVER RUNNING ON
 	1 HOST x 1 MPI RANK PER HOST x 1 THREAD PER RANK
        NUMBER OF EQUATIONS:  7794
        NUMBER OF RHS:        1
        NUMBER OF FLOPS:      1.008e+09
        SOLVER ELAPSED TIME:  42ms

               CONVERGENCE CHECKS FOR EQUILIBRIUM ITERATION     3


 AVERAGE FORCE                      9.274E-02   TIME AVG. FORCE       2.844E-02
 LARGEST SCALED RESIDUAL FORCE     -6.335E-05   AT NODE       2660   DOF  1
  CORRESPONDING RESIDUAL FORCE     -6.335E-05
 LARGEST INCREMENT OF DISP.         5.273E-03   AT NODE         30   DOF  1
 LARGEST CORRECTION TO DISP.       -3.655E-07   AT NODE       2660   DOF  1
          THE FORCE     EQUILIBRIUM EQUATIONS HAVE CONVERGED

 ITERATION SUMMARY FOR THE INCREMENT:   3 TOTAL ITERATIONS, OF WHICH
   0 ARE SEVERE DISCONTINUITY ITERATIONS AND  3 ARE EQUILIBRIUM ITERATIONS.

 TIME INCREMENT COMPLETED  1.000E-02,  FRACTION OF STEP COMPLETED  0.126    
 STEP TIME COMPLETED       0.126    ,  TOTAL TIME COMPLETED        0.126    


  INCREMENT    24 STARTS. ATTEMPT NUMBER  1, TIME INCREMENT  1.000E-02
 
	SYMMETRIC NEW DIRECT SPARSE SOLVER RUNNING ON
 	1 HOST x 1 MPI RANK PER HOST x 1 THREAD PER RANK
        NUMBER OF EQUATIONS:  7794
        NUMBER OF RHS:        1
        NUMBER OF FLOPS:      1.008e+09
        SOLVER ELAPSED TIME:  42ms

               CONVERGENCE CHECKS FOR EQUILIBRIUM ITERATION     1


 AVERAGE FORCE                      9.911E-02   TIME AVG. FORCE       3.139E-02
 LARGEST SCALED RESIDUAL FORCE     -2.545E-02   AT NODE       2657   DOF  3
  CORRESPONDING RESIDUAL FORCE     -2.545E-02
 LARGEST INCREMENT OF DISP.         5.275E-03   AT NODE         30   DOF  1
 LARGEST CORRECTION TO DISP.       -9.260E-05   AT NODE       1836   DOF  1
          FORCE     EQUILIBRIUM NOT ACHIEVED WITHIN TOLERANCE.
 
	SYMMETRIC NEW DIRECT SPARSE SOLVER RUNNING ON
 	1 HOST x 1 MPI RANK PER HOST x 1 THREAD PER RANK
        NUMBER OF EQUATIONS:  7794
        NUMBER OF RHS:        1
        NUMBER OF FLOPS:      1.008e+09
        SOLVER ELAPSED TIME:  41ms

               CONVERGENCE CHECKS FOR EQUILIBRIUM ITERATION     2


 AVERAGE FORCE                      9.911E-02   TIME AVG. FORCE       3.139E-02
 LARGEST SCALED RESIDUAL FORCE     -7.693E-04   AT NODE       2102   DOF  1
  CORRESPONDING RESIDUAL FORCE     -7.693E-04
 LARGEST INCREMENT OF DISP.         5.274E-03   AT NODE         30   DOF  1
 LARGEST CORRECTION TO DISP.        4.486E-06   AT NODE       1486   DOF  1
          FORCE     EQUILIBRIUM NOT ACHIEVED WITHIN TOLERANCE.
 
	SYMMETRIC NEW DIRECT SPARSE SOLVER RUNNING ON
 	1 HOST x 1 MPI RANK PER HOST x 1 THREAD PER RANK
        NUMBER OF EQUATIONS:  7794
        NUMBER OF RHS:        1
        NUMBER OF FLOPS:      1.008e+09
        SOLVER ELAPSED TIME:  44ms

               CONVERGENCE CHECKS FOR EQUILIBRIUM ITERATION     3


 AVERAGE FORCE                      9.911E-02   TIME AVG. FORCE       3.139E-02
 LARGEST SCALED RESIDUAL FORCE     -5.664E-06   AT NODE        150   DOF  1
  CORRESPONDING RESIDUAL FORCE     -5.664E-06
 LARGEST INCREMENT OF DISP.         5.274E-03   AT NODE         30   DOF  1
 LARGEST CORRECTION TO DISP.       -3.522E-07   AT NODE         67   DOF  1
          THE FORCE     EQUILIBRIUM EQUATIONS HAVE CONVERGED

 ITERATION SUMMARY FOR THE INCREMENT:   3 TOTAL ITERATIONS, OF WHICH
   0 ARE SEVERE DISCONTINUITY ITERATIONS AND  3 ARE EQUILIBRIUM ITERATIONS.

 TIME INCREMENT COMPLETED  1.000E-02,  FRACTION OF STEP COMPLETED  0.136    
 STEP TIME COMPLETED       0.136    ,  TOTAL TIME COMPLETED        0.136    


  INCREMENT    25 STARTS. ATTEMPT NUMBER  1, TIME INCREMENT  1.000E-02
 
	SYMMETRIC NEW DIRECT SPARSE SOLVER RUNNING ON
 	1 HOST x 1 MPI RANK PER HOST x 1 THREAD PER RANK
        NUMBER OF EQUATIONS:  7794
        NUMBER OF RHS:        1
        NUMBER OF FLOPS:      1.008e+09
        SOLVER ELAPSED TIME:  42ms

               CONVERGENCE CHECKS FOR EQUILIBRIUM ITERATION     1


 AVERAGE FORCE                      0.105       TIME AVG. FORCE       3.435E-02
 LARGEST SCALED RESIDUAL FORCE     -4.518E-02   AT NODE       2470   DOF  1
  CORRESPONDING RESIDUAL FORCE     -4.518E-02
 LARGEST INCREMENT OF DISP.         5.275E-03   AT NODE         30   DOF  1
 LARGEST CORRECTION TO DISP.       -8.013E-05   AT NODE       1836   DOF  1
          FORCE     EQUILIBRIUM NOT ACHIEVED WITHIN TOLERANCE.
 
	SYMMETRIC NEW DIRECT SPARSE SOLVER RUNNING ON
 	1 HOST x 1 MPI RANK PER HOST x 1 THREAD PER RANK
        NUMBER OF EQUATIONS:  7794
        NUMBER OF RHS:        1
        NUMBER OF FLOPS:      1.008e+09
        SOLVER ELAPSED TIME:  42ms

               CONVERGENCE CHECKS FOR EQUILIBRIUM ITERATION     2


 AVERAGE FORCE                      0.105       TIME AVG. FORCE       3.435E-02
 LARGEST SCALED RESIDUAL FORCE      5.997E-04   AT NODE       2470   DOF  1
  CORRESPONDING RESIDUAL FORCE      5.997E-04
 LARGEST INCREMENT OF DISP.         5.275E-03   AT NODE         30   DOF  1
 LARGEST CORRECTION TO DISP.        4.117E-06   AT NODE        121   DOF  3
          FORCE     EQUILIBRIUM NOT ACHIEVED WITHIN TOLERANCE.
 
	SYMMETRIC NEW DIRECT SPARSE SOLVER RUNNING ON
 	1 HOST x 1 MPI RANK PER HOST x 1 THREAD PER RANK
        NUMBER OF EQUATIONS:  7794
        NUMBER OF RHS:        1
        NUMBER OF FLOPS:      1.008e+09
        SOLVER ELAPSED TIME:  43ms

               CONVERGENCE CHECKS FOR EQUILIBRIUM ITERATION     3


 AVERAGE FORCE                      0.105       TIME AVG. FORCE       3.435E-02
 LARGEST SCALED RESIDUAL FORCE      5.414E-06   AT NODE        584   DOF  1
  CORRESPONDING RESIDUAL FORCE      5.414E-06
 LARGEST INCREMENT OF DISP.         5.275E-03   AT NODE         30   DOF  1
 LARGEST CORRECTION TO DISP.       -3.736E-07   AT NODE         67   DOF  1
          THE FORCE     EQUILIBRIUM EQUATIONS HAVE CONVERGED

 ITERATION SUMMARY FOR THE INCREMENT:   3 TOTAL ITERATIONS, OF WHICH
   0 ARE SEVERE DISCONTINUITY ITERATIONS AND  3 ARE EQUILIBRIUM ITERATIONS.

 TIME INCREMENT COMPLETED  1.000E-02,  FRACTION OF STEP COMPLETED  0.146    
 STEP TIME COMPLETED       0.146    ,  TOTAL TIME COMPLETED        0.146    


  INCREMENT    26 STARTS. ATTEMPT NUMBER  1, TIME INCREMENT  1.000E-02
 
	SYMMETRIC NEW DIRECT SPARSE SOLVER RUNNING ON
 	1 HOST x 1 MPI RANK PER HOST x 1 THREAD PER RANK
        NUMBER OF EQUATIONS:  7794
        NUMBER OF RHS:        1
        NUMBER OF FLOPS:      1.008e+09
        SOLVER ELAPSED TIME:  44ms

               CONVERGENCE CHECKS FOR EQUILIBRIUM ITERATION     1


 AVERAGE FORCE                      0.112       TIME AVG. FORCE       3.731E-02
 LARGEST SCALED RESIDUAL FORCE      1.631E-02   AT NODE       2470   DOF  1
  CORRESPONDING RESIDUAL FORCE      1.631E-02
 LARGEST INCREMENT OF DISP.         5.275E-03   AT NODE         30   DOF  1
 LARGEST CORRECTION TO DISP.       -7.361E-05   AT NODE       1836   DOF  1
          FORCE     EQUILIBRIUM NOT ACHIEVED WITHIN TOLERANCE.
 
	SYMMETRIC NEW DIRECT SPARSE SOLVER RUNNING ON
 	1 HOST x 1 MPI RANK PER HOST x 1 THREAD PER RANK
        NUMBER OF EQUATIONS:  7794
        NUMBER OF RHS:        1
        NUMBER OF FLOPS:      1.008e+09
        SOLVER ELAPSED TIME:  41ms

               CONVERGENCE CHECKS FOR EQUILIBRIUM ITERATION     2


 AVERAGE FORCE                      0.111       TIME AVG. FORCE       3.731E-02
 LARGEST SCALED RESIDUAL FORCE      9.442E-04   AT NODE       2470   DOF  1
  CORRESPONDING RESIDUAL FORCE      9.442E-04
 LARGEST INCREMENT OF DISP.         5.275E-03   AT NODE         30   DOF  1
 LARGEST CORRECTION TO DISP.        2.950E-06   AT NODE        808   DOF  1
          FORCE     EQUILIBRIUM NOT ACHIEVED WITHIN TOLERANCE.
 
	SYMMETRIC NEW DIRECT SPARSE SOLVER RUNNING ON
 	1 HOST x 1 MPI RANK PER HOST x 1 THREAD PER RANK
        NUMBER OF EQUATIONS:  7794
        NUMBER OF RHS:        1
        NUMBER OF FLOPS:      1.008e+09
        SOLVER ELAPSED TIME:  41ms

               CONVERGENCE CHECKS FOR EQUILIBRIUM ITERATION     3


 AVERAGE FORCE                      0.111       TIME AVG. FORCE       3.731E-02
 LARGEST SCALED RESIDUAL FORCE     -5.685E-06   AT NODE       1946   DOF  1
  CORRESPONDING RESIDUAL FORCE     -5.685E-06
 LARGEST INCREMENT OF DISP.         5.275E-03   AT NODE         30   DOF  1
 LARGEST CORRECTION TO DISP.       -3.768E-07   AT NODE         67   DOF  1
          THE FORCE     EQUILIBRIUM EQUATIONS HAVE CONVERGED

 ITERATION SUMMARY FOR THE INCREMENT:   3 TOTAL ITERATIONS, OF WHICH
   0 ARE SEVERE DISCONTINUITY ITERATIONS AND  3 ARE EQUILIBRIUM ITERATIONS.

 TIME INCREMENT COMPLETED  1.000E-02,  FRACTION OF STEP COMPLETED  0.156    
 STEP TIME COMPLETED       0.156    ,  TOTAL TIME COMPLETED        0.156    


  INCREMENT    27 STARTS. ATTEMPT NUMBER  1, TIME INCREMENT  1.000E-02
 
	SYMMETRIC NEW DIRECT SPARSE SOLVER RUNNING ON
 	1 HOST x 1 MPI RANK PER HOST x 1 THREAD PER RANK
        NUMBER OF EQUATIONS:  7794
        NUMBER OF RHS:        1
        NUMBER OF FLOPS:      1.008e+09
        SOLVER ELAPSED TIME:  42ms

               CONVERGENCE CHECKS FOR EQUILIBRIUM ITERATION     1


 AVERAGE FORCE                      0.118       TIME AVG. FORCE       4.028E-02
 LARGEST SCALED RESIDUAL FORCE     -1.385E-02   AT NODE       2623   DOF  1
  CORRESPONDING RESIDUAL FORCE     -1.385E-02
 LARGEST INCREMENT OF DISP.         5.275E-03   AT NODE         30   DOF  1
 LARGEST CORRECTION TO DISP.       -6.616E-05   AT NODE       1836   DOF  1
          FORCE     EQUILIBRIUM NOT ACHIEVED WITHIN TOLERANCE.
 
	SYMMETRIC NEW DIRECT SPARSE SOLVER RUNNING ON
 	1 HOST x 1 MPI RANK PER HOST x 1 THREAD PER RANK
        NUMBER OF EQUATIONS:  7794
        NUMBER OF RHS:        1
        NUMBER OF FLOPS:      1.008e+09
        SOLVER ELAPSED TIME:  42ms

               CONVERGENCE CHECKS FOR EQUILIBRIUM ITERATION     2


 AVERAGE FORCE                      0.118       TIME AVG. FORCE       4.028E-02
 LARGEST SCALED RESIDUAL FORCE     -1.518E-04   AT NODE       2623   DOF  1
  CORRESPONDING RESIDUAL FORCE     -1.518E-04
 LARGEST INCREMENT OF DISP.         5.275E-03   AT NODE         30   DOF  1
 LARGEST CORRECTION TO DISP.        3.627E-06   AT NODE       1486   DOF  1
          THE FORCE     EQUILIBRIUM EQUATIONS HAVE CONVERGED

 ITERATION SUMMARY FOR THE INCREMENT:   2 TOTAL ITERATIONS, OF WHICH
   0 ARE SEVERE DISCONTINUITY ITERATIONS AND  2 ARE EQUILIBRIUM ITERATIONS.

 TIME INCREMENT COMPLETED  1.000E-02,  FRACTION OF STEP COMPLETED  0.166    
 STEP TIME COMPLETED       0.166    ,  TOTAL TIME COMPLETED        0.166    


  INCREMENT    28 STARTS. ATTEMPT NUMBER  1, TIME INCREMENT  1.000E-02
 
	SYMMETRIC NEW DIRECT SPARSE SOLVER RUNNING ON
 	1 HOST x 1 MPI RANK PER HOST x 1 THREAD PER RANK
        NUMBER OF EQUATIONS:  7794
        NUMBER OF RHS:        1
        NUMBER OF FLOPS:      1.008e+09
        SOLVER ELAPSED TIME:  42ms

               CONVERGENCE CHECKS FOR EQUILIBRIUM ITERATION     1


 AVERAGE FORCE                      0.123       TIME AVG. FORCE       4.325E-02
 LARGEST SCALED RESIDUAL FORCE     -9.757E-03   AT NODE       2120   DOF  1
  CORRESPONDING RESIDUAL FORCE     -9.757E-03
 LARGEST INCREMENT OF DISP.         5.275E-03   AT NODE         30   DOF  1
 LARGEST CORRECTION TO DISP.       -6.004E-05   AT NODE       1836   DOF  1
          FORCE     EQUILIBRIUM NOT ACHIEVED WITHIN TOLERANCE.
 
	SYMMETRIC NEW DIRECT SPARSE SOLVER RUNNING ON
 	1 HOST x 1 MPI RANK PER HOST x 1 THREAD PER RANK
        NUMBER OF EQUATIONS:  7794
        NUMBER OF RHS:        1
        NUMBER OF FLOPS:      1.008e+09
        SOLVER ELAPSED TIME:  42ms

               CONVERGENCE CHECKS FOR EQUILIBRIUM ITERATION     2


 AVERAGE FORCE                      0.123       TIME AVG. FORCE       4.325E-02
 LARGEST SCALED RESIDUAL FORCE      2.478E-04   AT NODE       2561   DOF  2
  CORRESPONDING RESIDUAL FORCE      2.478E-04
 LARGEST INCREMENT OF DISP.         5.275E-03   AT NODE         30   DOF  1
 LARGEST CORRECTION TO DISP.        2.816E-06   AT NODE        146   DOF  3
          FORCE     EQUILIBRIUM NOT ACHIEVED WITHIN TOLERANCE.
 
	SYMMETRIC NEW DIRECT SPARSE SOLVER RUNNING ON
 	1 HOST x 1 MPI RANK PER HOST x 1 THREAD PER RANK
        NUMBER OF EQUATIONS:  7794
        NUMBER OF RHS:        1
        NUMBER OF FLOPS:      1.008e+09
        SOLVER ELAPSED TIME:  42ms

               CONVERGENCE CHECKS FOR EQUILIBRIUM ITERATION     3


 AVERAGE FORCE                      0.123       TIME AVG. FORCE       4.325E-02
 LARGEST SCALED RESIDUAL FORCE     -5.569E-06   AT NODE       1946   DOF  1
  CORRESPONDING RESIDUAL FORCE     -5.569E-06
 LARGEST INCREMENT OF DISP.         5.275E-03   AT NODE         30   DOF  1
 LARGEST CORRECTION TO DISP.       -2.906E-07   AT NODE         67   DOF  1
          THE FORCE     EQUILIBRIUM EQUATIONS HAVE CONVERGED

 ITERATION SUMMARY FOR THE INCREMENT:   3 TOTAL ITERATIONS, OF WHICH
   0 ARE SEVERE DISCONTINUITY ITERATIONS AND  3 ARE EQUILIBRIUM ITERATIONS.

 TIME INCREMENT COMPLETED  1.000E-02,  FRACTION OF STEP COMPLETED  0.176    
 STEP TIME COMPLETED       0.176    ,  TOTAL TIME COMPLETED        0.176    


  INCREMENT    29 STARTS. ATTEMPT NUMBER  1, TIME INCREMENT  1.000E-02
 
	SYMMETRIC NEW DIRECT SPARSE SOLVER RUNNING ON
 	1 HOST x 1 MPI RANK PER HOST x 1 THREAD PER RANK
        NUMBER OF EQUATIONS:  7794
        NUMBER OF RHS:        1
        NUMBER OF FLOPS:      1.008e+09
        SOLVER ELAPSED TIME:  42ms

               CONVERGENCE CHECKS FOR EQUILIBRIUM ITERATION     1


 AVERAGE FORCE                      0.129       TIME AVG. FORCE       4.621E-02
 LARGEST SCALED RESIDUAL FORCE     -7.390E-03   AT NODE       2545   DOF  1
  CORRESPONDING RESIDUAL FORCE     -7.390E-03
 LARGEST INCREMENT OF DISP.         5.273E-03   AT NODE         30   DOF  1
 LARGEST CORRECTION TO DISP.       -5.677E-05   AT NODE       1836   DOF  1
          FORCE     EQUILIBRIUM NOT ACHIEVED WITHIN TOLERANCE.
 
	SYMMETRIC NEW DIRECT SPARSE SOLVER RUNNING ON
 	1 HOST x 1 MPI RANK PER HOST x 1 THREAD PER RANK
        NUMBER OF EQUATIONS:  7794
        NUMBER OF RHS:        1
        NUMBER OF FLOPS:      1.008e+09
        SOLVER ELAPSED TIME:  42ms

               CONVERGENCE CHECKS FOR EQUILIBRIUM ITERATION     2


 AVERAGE FORCE                      0.129       TIME AVG. FORCE       4.621E-02
 LARGEST SCALED RESIDUAL FORCE      5.008E-05   AT NODE       1946   DOF  1
  CORRESPONDING RESIDUAL FORCE      5.008E-05
 LARGEST INCREMENT OF DISP.         5.273E-03   AT NODE         30   DOF  1
 LARGEST CORRECTION TO DISP.        1.949E-06   AT NODE         67   DOF  1
          THE FORCE     EQUILIBRIUM EQUATIONS HAVE CONVERGED

 ITERATION SUMMARY FOR THE INCREMENT:   2 TOTAL ITERATIONS, OF WHICH
   0 ARE SEVERE DISCONTINUITY ITERATIONS AND  2 ARE EQUILIBRIUM ITERATIONS.

 TIME INCREMENT COMPLETED  1.000E-02,  FRACTION OF STEP COMPLETED  0.186    
 STEP TIME COMPLETED       0.186    ,  TOTAL TIME COMPLETED        0.186    


  INCREMENT    30 STARTS. ATTEMPT NUMBER  1, TIME INCREMENT  1.000E-02
 
	SYMMETRIC NEW DIRECT SPARSE SOLVER RUNNING ON
 	1 HOST x 1 MPI RANK PER HOST x 1 THREAD PER RANK
        NUMBER OF EQUATIONS:  7794
        NUMBER OF RHS:        1
        NUMBER OF FLOPS:      1.008e+09
        SOLVER ELAPSED TIME:  42ms

               CONVERGENCE CHECKS FOR EQUILIBRIUM ITERATION     1


 AVERAGE FORCE                      0.135       TIME AVG. FORCE       4.915E-02
 LARGEST SCALED RESIDUAL FORCE     -9.858E-03   AT NODE       2589   DOF  1
  CORRESPONDING RESIDUAL FORCE     -9.858E-03
 LARGEST INCREMENT OF DISP.         5.272E-03   AT NODE         30   DOF  1
 LARGEST CORRECTION TO DISP.       -5.191E-05   AT NODE       1836   DOF  1
          FORCE     EQUILIBRIUM NOT ACHIEVED WITHIN TOLERANCE.
 
	SYMMETRIC NEW DIRECT SPARSE SOLVER RUNNING ON
 	1 HOST x 1 MPI RANK PER HOST x 1 THREAD PER RANK
        NUMBER OF EQUATIONS:  7794
        NUMBER OF RHS:        1
        NUMBER OF FLOPS:      1.008e+09
        SOLVER ELAPSED TIME:  41ms

               CONVERGENCE CHECKS FOR EQUILIBRIUM ITERATION     2


 AVERAGE FORCE                      0.135       TIME AVG. FORCE       4.915E-02
 LARGEST SCALED RESIDUAL FORCE     -1.037E-04   AT NODE       2589   DOF  1
  CORRESPONDING RESIDUAL FORCE     -1.037E-04
 LARGEST INCREMENT OF DISP.         5.271E-03   AT NODE         30   DOF  1
 LARGEST CORRECTION TO DISP.        1.950E-06   AT NODE       1836   DOF  1
          THE FORCE     EQUILIBRIUM EQUATIONS HAVE CONVERGED

 ITERATION SUMMARY FOR THE INCREMENT:   2 TOTAL ITERATIONS, OF WHICH
   0 ARE SEVERE DISCONTINUITY ITERATIONS AND  2 ARE EQUILIBRIUM ITERATIONS.

 TIME INCREMENT COMPLETED  1.000E-02,  FRACTION OF STEP COMPLETED  0.196    
 STEP TIME COMPLETED       0.196    ,  TOTAL TIME COMPLETED        0.196    


  INCREMENT    31 STARTS. ATTEMPT NUMBER  1, TIME INCREMENT  1.000E-02
 
	SYMMETRIC NEW DIRECT SPARSE SOLVER RUNNING ON
 	1 HOST x 1 MPI RANK PER HOST x 1 THREAD PER RANK
        NUMBER OF EQUATIONS:  7794
        NUMBER OF RHS:        1
        NUMBER OF FLOPS:      1.008e+09
        SOLVER ELAPSED TIME:  43ms

               CONVERGENCE CHECKS FOR EQUILIBRIUM ITERATION     1


 AVERAGE FORCE                      0.140       TIME AVG. FORCE       5.209E-02
 LARGEST SCALED RESIDUAL FORCE     -3.768E-03   AT NODE       2543   DOF  1
  CORRESPONDING RESIDUAL FORCE     -3.768E-03
 LARGEST INCREMENT OF DISP.         5.268E-03   AT NODE         30   DOF  1
 LARGEST CORRECTION TO DISP.       -4.316E-05   AT NODE       1836   DOF  1
          FORCE     EQUILIBRIUM NOT ACHIEVED WITHIN TOLERANCE.
 
	SYMMETRIC NEW DIRECT SPARSE SOLVER RUNNING ON
 	1 HOST x 1 MPI RANK PER HOST x 1 THREAD PER RANK
        NUMBER OF EQUATIONS:  7794
        NUMBER OF RHS:        1
        NUMBER OF FLOPS:      1.008e+09
        SOLVER ELAPSED TIME:  42ms

               CONVERGENCE CHECKS FOR EQUILIBRIUM ITERATION     2


 AVERAGE FORCE                      0.140       TIME AVG. FORCE       5.209E-02
 LARGEST SCALED RESIDUAL FORCE      3.235E-05   AT NODE       2130   DOF  1
  CORRESPONDING RESIDUAL FORCE      3.235E-05
 LARGEST INCREMENT OF DISP.         5.268E-03   AT NODE         30   DOF  1
 LARGEST CORRECTION TO DISP.        1.803E-06   AT NODE       1836   DOF  1
          THE FORCE     EQUILIBRIUM EQUATIONS HAVE CONVERGED

 ITERATION SUMMARY FOR THE INCREMENT:   2 TOTAL ITERATIONS, OF WHICH
   0 ARE SEVERE DISCONTINUITY ITERATIONS AND  2 ARE EQUILIBRIUM ITERATIONS.

 TIME INCREMENT COMPLETED  1.000E-02,  FRACTION OF STEP COMPLETED  0.206    
 STEP TIME COMPLETED       0.206    ,  TOTAL TIME COMPLETED        0.206    


  INCREMENT    32 STARTS. ATTEMPT NUMBER  1, TIME INCREMENT  1.000E-02
 
	SYMMETRIC NEW DIRECT SPARSE SOLVER RUNNING ON
 	1 HOST x 1 MPI RANK PER HOST x 1 THREAD PER RANK
        NUMBER OF EQUATIONS:  7794
        NUMBER OF RHS:        1
        NUMBER OF FLOPS:      1.008e+09
        SOLVER ELAPSED TIME:  42ms

               CONVERGENCE CHECKS FOR EQUILIBRIUM ITERATION     1


 AVERAGE FORCE                      0.145       TIME AVG. FORCE       5.500E-02
 LARGEST SCALED RESIDUAL FORCE     -2.844E-03   AT NODE       2705   DOF  2
  CORRESPONDING RESIDUAL FORCE     -2.844E-03
 LARGEST INCREMENT OF DISP.         5.263E-03   AT NODE         30   DOF  1
 LARGEST CORRECTION TO DISP.       -3.749E-05   AT NODE        952   DOF  1
          FORCE     EQUILIBRIUM NOT ACHIEVED WITHIN TOLERANCE.
 
	SYMMETRIC NEW DIRECT SPARSE SOLVER RUNNING ON
 	1 HOST x 1 MPI RANK PER HOST x 1 THREAD PER RANK
        NUMBER OF EQUATIONS:  7794
        NUMBER OF RHS:        1
        NUMBER OF FLOPS:      1.008e+09
        SOLVER ELAPSED TIME:  54ms

               CONVERGENCE CHECKS FOR EQUILIBRIUM ITERATION     2


 AVERAGE FORCE                      0.145       TIME AVG. FORCE       5.500E-02
 LARGEST SCALED RESIDUAL FORCE      6.291E-05   AT NODE       2657   DOF  1
  CORRESPONDING RESIDUAL FORCE      6.291E-05
 LARGEST INCREMENT OF DISP.         5.263E-03   AT NODE         30   DOF  1
 LARGEST CORRECTION TO DISP.        1.461E-06   AT NODE       1836   DOF  1
          THE FORCE     EQUILIBRIUM EQUATIONS HAVE CONVERGED

 ITERATION SUMMARY FOR THE INCREMENT:   2 TOTAL ITERATIONS, OF WHICH
   0 ARE SEVERE DISCONTINUITY ITERATIONS AND  2 ARE EQUILIBRIUM ITERATIONS.

 TIME INCREMENT COMPLETED  1.000E-02,  FRACTION OF STEP COMPLETED  0.216    
 STEP TIME COMPLETED       0.216    ,  TOTAL TIME COMPLETED        0.216    


  INCREMENT    33 STARTS. ATTEMPT NUMBER  1, TIME INCREMENT  1.000E-02
 
	SYMMETRIC NEW DIRECT SPARSE SOLVER RUNNING ON
 	1 HOST x 1 MPI RANK PER HOST x 1 THREAD PER RANK
        NUMBER OF EQUATIONS:  7794
        NUMBER OF RHS:        1
        NUMBER OF FLOPS:      1.008e+09
        SOLVER ELAPSED TIME:  42ms

               CONVERGENCE CHECKS FOR EQUILIBRIUM ITERATION     1


 AVERAGE FORCE                      0.151       TIME AVG. FORCE       5.791E-02
 LARGEST SCALED RESIDUAL FORCE      4.444E-03   AT NODE       2657   DOF  1
  CORRESPONDING RESIDUAL FORCE      4.444E-03
 LARGEST INCREMENT OF DISP.         5.255E-03   AT NODE         30   DOF  1
 LARGEST CORRECTION TO DISP.       -3.566E-05   AT NODE       2552   DOF  1
          FORCE     EQUILIBRIUM NOT ACHIEVED WITHIN TOLERANCE.
 
	SYMMETRIC NEW DIRECT SPARSE SOLVER RUNNING ON
 	1 HOST x 1 MPI RANK PER HOST x 1 THREAD PER RANK
        NUMBER OF EQUATIONS:  7794
        NUMBER OF RHS:        1
        NUMBER OF FLOPS:      1.008e+09
        SOLVER ELAPSED TIME:  43ms

               CONVERGENCE CHECKS FOR EQUILIBRIUM ITERATION     2


 AVERAGE FORCE                      0.151       TIME AVG. FORCE       5.791E-02
 LARGEST SCALED RESIDUAL FORCE      1.490E-04   AT NODE       2657   DOF  1
  CORRESPONDING RESIDUAL FORCE      1.490E-04
 LARGEST INCREMENT OF DISP.         5.255E-03   AT NODE         30   DOF  1
 LARGEST CORRECTION TO DISP.        1.193E-06   AT NODE        232   DOF  1
          THE FORCE     EQUILIBRIUM EQUATIONS HAVE CONVERGED

 ITERATION SUMMARY FOR THE INCREMENT:   2 TOTAL ITERATIONS, OF WHICH
   0 ARE SEVERE DISCONTINUITY ITERATIONS AND  2 ARE EQUILIBRIUM ITERATIONS.

 TIME INCREMENT COMPLETED  1.000E-02,  FRACTION OF STEP COMPLETED  0.226    
 STEP TIME COMPLETED       0.226    ,  TOTAL TIME COMPLETED        0.226    


  INCREMENT    34 STARTS. ATTEMPT NUMBER  1, TIME INCREMENT  1.000E-02
 
	SYMMETRIC NEW DIRECT SPARSE SOLVER RUNNING ON
 	1 HOST x 1 MPI RANK PER HOST x 1 THREAD PER RANK
        NUMBER OF EQUATIONS:  7794
        NUMBER OF RHS:        1
        NUMBER OF FLOPS:      1.008e+09
        SOLVER ELAPSED TIME:  42ms

               CONVERGENCE CHECKS FOR EQUILIBRIUM ITERATION     1


 AVERAGE FORCE                      0.156       TIME AVG. FORCE       6.080E-02
 LARGEST SCALED RESIDUAL FORCE     -2.483E-03   AT NODE       2623   DOF  2
  CORRESPONDING RESIDUAL FORCE     -2.483E-03
 LARGEST INCREMENT OF DISP.         5.246E-03   AT NODE         30   DOF  1
 LARGEST CORRECTION TO DISP.       -3.438E-05   AT NODE       2552   DOF  1
          FORCE     EQUILIBRIUM NOT ACHIEVED WITHIN TOLERANCE.
 
	SYMMETRIC NEW DIRECT SPARSE SOLVER RUNNING ON
 	1 HOST x 1 MPI RANK PER HOST x 1 THREAD PER RANK
        NUMBER OF EQUATIONS:  7794
        NUMBER OF RHS:        1
        NUMBER OF FLOPS:      1.008e+09
        SOLVER ELAPSED TIME:  42ms

               CONVERGENCE CHECKS FOR EQUILIBRIUM ITERATION     2


 AVERAGE FORCE                      0.156       TIME AVG. FORCE       6.080E-02
 LARGEST SCALED RESIDUAL FORCE     -4.779E-05   AT NODE       2623   DOF  2
  CORRESPONDING RESIDUAL FORCE     -4.779E-05
 LARGEST INCREMENT OF DISP.         5.246E-03   AT NODE         30   DOF  1
 LARGEST CORRECTION TO DISP.       -1.816E-06   AT NODE         73   DOF  2
          THE FORCE     EQUILIBRIUM EQUATIONS HAVE CONVERGED

 ITERATION SUMMARY FOR THE INCREMENT:   2 TOTAL ITERATIONS, OF WHICH
   0 ARE SEVERE DISCONTINUITY ITERATIONS AND  2 ARE EQUILIBRIUM ITERATIONS.

 TIME INCREMENT COMPLETED  1.000E-02,  FRACTION OF STEP COMPLETED  0.236    
 STEP TIME COMPLETED       0.236    ,  TOTAL TIME COMPLETED        0.236    


  INCREMENT    35 STARTS. ATTEMPT NUMBER  1, TIME INCREMENT  1.000E-02
 
	SYMMETRIC NEW DIRECT SPARSE SOLVER RUNNING ON
 	1 HOST x 1 MPI RANK PER HOST x 1 THREAD PER RANK
        NUMBER OF EQUATIONS:  7794
        NUMBER OF RHS:        1
        NUMBER OF FLOPS:      1.008e+09
        SOLVER ELAPSED TIME:  41ms

               CONVERGENCE CHECKS FOR EQUILIBRIUM ITERATION     1


 AVERAGE FORCE                      0.161       TIME AVG. FORCE       6.367E-02
 LARGEST SCALED RESIDUAL FORCE      2.383E-03   AT NODE       2580   DOF  1
  CORRESPONDING RESIDUAL FORCE      2.383E-03
 LARGEST INCREMENT OF DISP.         5.234E-03   AT NODE         30   DOF  1
 LARGEST CORRECTION TO DISP.        3.378E-05   AT NODE       1486   DOF  3
          FORCE     EQUILIBRIUM NOT ACHIEVED WITHIN TOLERANCE.
 
	SYMMETRIC NEW DIRECT SPARSE SOLVER RUNNING ON
 	1 HOST x 1 MPI RANK PER HOST x 1 THREAD PER RANK
        NUMBER OF EQUATIONS:  7794
        NUMBER OF RHS:        1
        NUMBER OF FLOPS:      1.008e+09
        SOLVER ELAPSED TIME:  42ms

               CONVERGENCE CHECKS FOR EQUILIBRIUM ITERATION     2


 AVERAGE FORCE                      0.161       TIME AVG. FORCE       6.367E-02
 LARGEST SCALED RESIDUAL FORCE     -5.330E-05   AT NODE       1831   DOF  2
  CORRESPONDING RESIDUAL FORCE     -5.330E-05
 LARGEST INCREMENT OF DISP.         5.234E-03   AT NODE         30   DOF  1
 LARGEST CORRECTION TO DISP.       -1.332E-06   AT NODE         73   DOF  2
          THE FORCE     EQUILIBRIUM EQUATIONS HAVE CONVERGED

 ITERATION SUMMARY FOR THE INCREMENT:   2 TOTAL ITERATIONS, OF WHICH
   0 ARE SEVERE DISCONTINUITY ITERATIONS AND  2 ARE EQUILIBRIUM ITERATIONS.

 TIME INCREMENT COMPLETED  1.000E-02,  FRACTION OF STEP COMPLETED  0.246    
 STEP TIME COMPLETED       0.246    ,  TOTAL TIME COMPLETED        0.246    


  INCREMENT    36 STARTS. ATTEMPT NUMBER  1, TIME INCREMENT  1.000E-02
 
	SYMMETRIC NEW DIRECT SPARSE SOLVER RUNNING ON
 	1 HOST x 1 MPI RANK PER HOST x 1 THREAD PER RANK
        NUMBER OF EQUATIONS:  7794
        NUMBER OF RHS:        1
        NUMBER OF FLOPS:      1.008e+09
        SOLVER ELAPSED TIME:  42ms

               CONVERGENCE CHECKS FOR EQUILIBRIUM ITERATION     1


 AVERAGE FORCE                      0.167       TIME AVG. FORCE       6.653E-02
 LARGEST SCALED RESIDUAL FORCE      2.410E-03   AT NODE       1345   DOF  1
  CORRESPONDING RESIDUAL FORCE      2.410E-03
 LARGEST INCREMENT OF DISP.         5.221E-03   AT NODE         30   DOF  1
 LARGEST CORRECTION TO DISP.        3.770E-05   AT NODE       1486   DOF  3
          FORCE     EQUILIBRIUM NOT ACHIEVED WITHIN TOLERANCE.
 
	SYMMETRIC NEW DIRECT SPARSE SOLVER RUNNING ON
 	1 HOST x 1 MPI RANK PER HOST x 1 THREAD PER RANK
        NUMBER OF EQUATIONS:  7794
        NUMBER OF RHS:        1
        NUMBER OF FLOPS:      1.008e+09
        SOLVER ELAPSED TIME:  41ms

               CONVERGENCE CHECKS FOR EQUILIBRIUM ITERATION     2


 AVERAGE FORCE                      0.167       TIME AVG. FORCE       6.653E-02
 LARGEST SCALED RESIDUAL FORCE     -5.375E-05   AT NODE       2611   DOF  3
  CORRESPONDING RESIDUAL FORCE     -5.375E-05
 LARGEST INCREMENT OF DISP.         5.220E-03   AT NODE         30   DOF  1
 LARGEST CORRECTION TO DISP.       -9.975E-07   AT NODE         93   DOF  3
          THE FORCE     EQUILIBRIUM EQUATIONS HAVE CONVERGED

 ITERATION SUMMARY FOR THE INCREMENT:   2 TOTAL ITERATIONS, OF WHICH
   0 ARE SEVERE DISCONTINUITY ITERATIONS AND  2 ARE EQUILIBRIUM ITERATIONS.

 TIME INCREMENT COMPLETED  1.000E-02,  FRACTION OF STEP COMPLETED  0.256    
 STEP TIME COMPLETED       0.256    ,  TOTAL TIME COMPLETED        0.256    


  INCREMENT    37 STARTS. ATTEMPT NUMBER  1, TIME INCREMENT  1.000E-02
 
	SYMMETRIC NEW DIRECT SPARSE SOLVER RUNNING ON
 	1 HOST x 1 MPI RANK PER HOST x 1 THREAD PER RANK
        NUMBER OF EQUATIONS:  7794
        NUMBER OF RHS:        1
        NUMBER OF FLOPS:      1.008e+09
        SOLVER ELAPSED TIME:  44ms

               CONVERGENCE CHECKS FOR EQUILIBRIUM ITERATION     1


 AVERAGE FORCE                      0.172       TIME AVG. FORCE       6.937E-02
 LARGEST SCALED RESIDUAL FORCE      6.048E-03   AT NODE       1345   DOF  1
  CORRESPONDING RESIDUAL FORCE      6.048E-03
 LARGEST INCREMENT OF DISP.         5.206E-03   AT NODE         30   DOF  1
 LARGEST CORRECTION TO DISP.        3.972E-05   AT NODE       1486   DOF  3
          FORCE     EQUILIBRIUM NOT ACHIEVED WITHIN TOLERANCE.
 
	SYMMETRIC NEW DIRECT SPARSE SOLVER RUNNING ON
 	1 HOST x 1 MPI RANK PER HOST x 1 THREAD PER RANK
        NUMBER OF EQUATIONS:  7794
        NUMBER OF RHS:        1
        NUMBER OF FLOPS:      1.008e+09
        SOLVER ELAPSED TIME:  42ms

               CONVERGENCE CHECKS FOR EQUILIBRIUM ITERATION     2


 AVERAGE FORCE                      0.172       TIME AVG. FORCE       6.937E-02
 LARGEST SCALED RESIDUAL FORCE     -1.068E-04   AT NODE       2157   DOF  1
  CORRESPONDING RESIDUAL FORCE     -1.068E-04
 LARGEST INCREMENT OF DISP.         5.206E-03   AT NODE         30   DOF  1
 LARGEST CORRECTION TO DISP.       -1.335E-06   AT NODE        121   DOF  3
          THE FORCE     EQUILIBRIUM EQUATIONS HAVE CONVERGED

 ITERATION SUMMARY FOR THE INCREMENT:   2 TOTAL ITERATIONS, OF WHICH
   0 ARE SEVERE DISCONTINUITY ITERATIONS AND  2 ARE EQUILIBRIUM ITERATIONS.

 TIME INCREMENT COMPLETED  1.000E-02,  FRACTION OF STEP COMPLETED  0.266    
 STEP TIME COMPLETED       0.266    ,  TOTAL TIME COMPLETED        0.266    


  INCREMENT    38 STARTS. ATTEMPT NUMBER  1, TIME INCREMENT  1.000E-02
 
	SYMMETRIC NEW DIRECT SPARSE SOLVER RUNNING ON
 	1 HOST x 1 MPI RANK PER HOST x 1 THREAD PER RANK
        NUMBER OF EQUATIONS:  7794
        NUMBER OF RHS:        1
        NUMBER OF FLOPS:      1.008e+09
        SOLVER ELAPSED TIME:  44ms

               CONVERGENCE CHECKS FOR EQUILIBRIUM ITERATION     1


 AVERAGE FORCE                      0.177       TIME AVG. FORCE       7.220E-02
 LARGEST SCALED RESIDUAL FORCE      7.912E-03   AT NODE       1345   DOF  1
  CORRESPONDING RESIDUAL FORCE      7.912E-03
[...]
 LARGEST CORRECTION TO DISP.       -7.752E-05   AT NODE        211   DOF  1
          FORCE     EQUILIBRIUM NOT ACHIEVED WITHIN TOLERANCE.
 
	SYMMETRIC NEW DIRECT SPARSE SOLVER RUNNING ON
 	1 HOST x 1 MPI RANK PER HOST x 1 THREAD PER RANK
        NUMBER OF EQUATIONS:  7794
        NUMBER OF RHS:        1
        NUMBER OF FLOPS:      1.008e+09
        SOLVER ELAPSED TIME:  42ms

               CONVERGENCE CHECKS FOR EQUILIBRIUM ITERATION     2


 AVERAGE FORCE                      0.418       TIME AVG. FORCE       0.220    
 LARGEST SCALED RESIDUAL FORCE     -3.304E-05   AT NODE       2134   DOF  1
  CORRESPONDING RESIDUAL FORCE     -3.304E-05
 LARGEST INCREMENT OF DISP.         5.000E-03   AT NODE         21   DOF  1
 LARGEST CORRECTION TO DISP.        2.111E-06   AT NODE       1005   DOF  1
          THE FORCE     EQUILIBRIUM EQUATIONS HAVE CONVERGED

 ITERATION SUMMARY FOR THE INCREMENT:   2 TOTAL ITERATIONS, OF WHICH
   0 ARE SEVERE DISCONTINUITY ITERATIONS AND  2 ARE EQUILIBRIUM ITERATIONS.

 TIME INCREMENT COMPLETED  1.000E-02,  FRACTION OF STEP COMPLETED  0.906    
 STEP TIME COMPLETED       0.906    ,  TOTAL TIME COMPLETED        0.906    


  INCREMENT   102 STARTS. ATTEMPT NUMBER  1, TIME INCREMENT  1.000E-02
 
	SYMMETRIC NEW DIRECT SPARSE SOLVER RUNNING ON
 	1 HOST x 1 MPI RANK PER HOST x 1 THREAD PER RANK
        NUMBER OF EQUATIONS:  7794
        NUMBER OF RHS:        1
        NUMBER OF FLOPS:      1.008e+09
        SOLVER ELAPSED TIME:  45ms

               CONVERGENCE CHECKS FOR EQUILIBRIUM ITERATION     1


 AVERAGE FORCE                      0.421       TIME AVG. FORCE       0.222    
 LARGEST SCALED RESIDUAL FORCE     -1.452E-03   AT NODE       2122   DOF  3
  CORRESPONDING RESIDUAL FORCE     -1.452E-03
 LARGEST INCREMENT OF DISP.         5.000E-03   AT NODE         21   DOF  1
 LARGEST CORRECTION TO DISP.       -7.706E-05   AT NODE        211   DOF  1
          FORCE     EQUILIBRIUM NOT ACHIEVED WITHIN TOLERANCE.
 
	SYMMETRIC NEW DIRECT SPARSE SOLVER RUNNING ON
 	1 HOST x 1 MPI RANK PER HOST x 1 THREAD PER RANK
        NUMBER OF EQUATIONS:  7794
        NUMBER OF RHS:        1
        NUMBER OF FLOPS:      1.008e+09
        SOLVER ELAPSED TIME:  42ms

               CONVERGENCE CHECKS FOR EQUILIBRIUM ITERATION     2


 AVERAGE FORCE                      0.421       TIME AVG. FORCE       0.222    
 LARGEST SCALED RESIDUAL FORCE     -2.903E-05   AT NODE       2134   DOF  1
  CORRESPONDING RESIDUAL FORCE     -2.903E-05
 LARGEST INCREMENT OF DISP.         5.000E-03   AT NODE         21   DOF  1
 LARGEST CORRECTION TO DISP.        2.189E-06   AT NODE       1005   DOF  1
          THE FORCE     EQUILIBRIUM EQUATIONS HAVE CONVERGED

 ITERATION SUMMARY FOR THE INCREMENT:   2 TOTAL ITERATIONS, OF WHICH
   0 ARE SEVERE DISCONTINUITY ITERATIONS AND  2 ARE EQUILIBRIUM ITERATIONS.

 TIME INCREMENT COMPLETED  1.000E-02,  FRACTION OF STEP COMPLETED  0.916    
 STEP TIME COMPLETED       0.916    ,  TOTAL TIME COMPLETED        0.916    


  INCREMENT   103 STARTS. ATTEMPT NUMBER  1, TIME INCREMENT  1.000E-02
 
	SYMMETRIC NEW DIRECT SPARSE SOLVER RUNNING ON
 	1 HOST x 1 MPI RANK PER HOST x 1 THREAD PER RANK
        NUMBER OF EQUATIONS:  7794
        NUMBER OF RHS:        1
        NUMBER OF FLOPS:      1.008e+09
        SOLVER ELAPSED TIME:  42ms

               CONVERGENCE CHECKS FOR EQUILIBRIUM ITERATION     1


 AVERAGE FORCE                      0.424       TIME AVG. FORCE       0.224    
 LARGEST SCALED RESIDUAL FORCE     -1.361E-03   AT NODE       2404   DOF  2
  CORRESPONDING RESIDUAL FORCE     -1.361E-03
 LARGEST INCREMENT OF DISP.         5.000E-03   AT NODE         21   DOF  1
 LARGEST CORRECTION TO DISP.       -7.543E-05   AT NODE        211   DOF  1
          FORCE     EQUILIBRIUM NOT ACHIEVED WITHIN TOLERANCE.
 
	SYMMETRIC NEW DIRECT SPARSE SOLVER RUNNING ON
 	1 HOST x 1 MPI RANK PER HOST x 1 THREAD PER RANK
        NUMBER OF EQUATIONS:  7794
        NUMBER OF RHS:        1
        NUMBER OF FLOPS:      1.008e+09
        SOLVER ELAPSED TIME:  42ms

               CONVERGENCE CHECKS FOR EQUILIBRIUM ITERATION     2


 AVERAGE FORCE                      0.424       TIME AVG. FORCE       0.224    
 LARGEST SCALED RESIDUAL FORCE     -2.773E-05   AT NODE       2136   DOF  3
  CORRESPONDING RESIDUAL FORCE     -2.773E-05
 LARGEST INCREMENT OF DISP.         5.000E-03   AT NODE         21   DOF  1
 LARGEST CORRECTION TO DISP.        2.273E-06   AT NODE       1005   DOF  1
          THE FORCE     EQUILIBRIUM EQUATIONS HAVE CONVERGED

 ITERATION SUMMARY FOR THE INCREMENT:   2 TOTAL ITERATIONS, OF WHICH
   0 ARE SEVERE DISCONTINUITY ITERATIONS AND  2 ARE EQUILIBRIUM ITERATIONS.

 TIME INCREMENT COMPLETED  1.000E-02,  FRACTION OF STEP COMPLETED  0.926    
 STEP TIME COMPLETED       0.926    ,  TOTAL TIME COMPLETED        0.926    


  INCREMENT   104 STARTS. ATTEMPT NUMBER  1, TIME INCREMENT  1.000E-02
 
	SYMMETRIC NEW DIRECT SPARSE SOLVER RUNNING ON
 	1 HOST x 1 MPI RANK PER HOST x 1 THREAD PER RANK
        NUMBER OF EQUATIONS:  7794
        NUMBER OF RHS:        1
        NUMBER OF FLOPS:      1.008e+09
        SOLVER ELAPSED TIME:  42ms

               CONVERGENCE CHECKS FOR EQUILIBRIUM ITERATION     1


 AVERAGE FORCE                      0.427       TIME AVG. FORCE       0.226    
 LARGEST SCALED RESIDUAL FORCE     -1.229E-03   AT NODE       2404   DOF  2
  CORRESPONDING RESIDUAL FORCE     -1.229E-03
 LARGEST INCREMENT OF DISP.         5.000E-03   AT NODE         21   DOF  1
 LARGEST CORRECTION TO DISP.       -7.334E-05   AT NODE        211   DOF  1
          FORCE     EQUILIBRIUM NOT ACHIEVED WITHIN TOLERANCE.
 
	SYMMETRIC NEW DIRECT SPARSE SOLVER RUNNING ON
 	1 HOST x 1 MPI RANK PER HOST x 1 THREAD PER RANK
        NUMBER OF EQUATIONS:  7794
        NUMBER OF RHS:        1
        NUMBER OF FLOPS:      1.008e+09
        SOLVER ELAPSED TIME:  42ms

               CONVERGENCE CHECKS FOR EQUILIBRIUM ITERATION     2


 AVERAGE FORCE                      0.427       TIME AVG. FORCE       0.226    
 LARGEST SCALED RESIDUAL FORCE     -3.428E-05   AT NODE       2070   DOF  1
  CORRESPONDING RESIDUAL FORCE     -3.428E-05
 LARGEST INCREMENT OF DISP.         5.000E-03   AT NODE         21   DOF  1
 LARGEST CORRECTION TO DISP.        2.339E-06   AT NODE       1005   DOF  1
          THE FORCE     EQUILIBRIUM EQUATIONS HAVE CONVERGED

 ITERATION SUMMARY FOR THE INCREMENT:   2 TOTAL ITERATIONS, OF WHICH
   0 ARE SEVERE DISCONTINUITY ITERATIONS AND  2 ARE EQUILIBRIUM ITERATIONS.

 TIME INCREMENT COMPLETED  1.000E-02,  FRACTION OF STEP COMPLETED  0.936    
 STEP TIME COMPLETED       0.936    ,  TOTAL TIME COMPLETED        0.936    


  INCREMENT   105 STARTS. ATTEMPT NUMBER  1, TIME INCREMENT  1.000E-02
 
	SYMMETRIC NEW DIRECT SPARSE SOLVER RUNNING ON
 	1 HOST x 1 MPI RANK PER HOST x 1 THREAD PER RANK
        NUMBER OF EQUATIONS:  7794
        NUMBER OF RHS:        1
        NUMBER OF FLOPS:      1.008e+09
        SOLVER ELAPSED TIME:  42ms

               CONVERGENCE CHECKS FOR EQUILIBRIUM ITERATION     1


 AVERAGE FORCE                      0.430       TIME AVG. FORCE       0.228    
 LARGEST SCALED RESIDUAL FORCE     -1.197E-03   AT NODE       2404   DOF  2
  CORRESPONDING RESIDUAL FORCE     -1.197E-03
 LARGEST INCREMENT OF DISP.         5.000E-03   AT NODE         21   DOF  1
 LARGEST CORRECTION TO DISP.       -7.150E-05   AT NODE        211   DOF  1
          FORCE     EQUILIBRIUM NOT ACHIEVED WITHIN TOLERANCE.
 
	SYMMETRIC NEW DIRECT SPARSE SOLVER RUNNING ON
 	1 HOST x 1 MPI RANK PER HOST x 1 THREAD PER RANK
        NUMBER OF EQUATIONS:  7794
        NUMBER OF RHS:        1
        NUMBER OF FLOPS:      1.008e+09
        SOLVER ELAPSED TIME:  42ms

               CONVERGENCE CHECKS FOR EQUILIBRIUM ITERATION     2


 AVERAGE FORCE                      0.430       TIME AVG. FORCE       0.228    
 LARGEST SCALED RESIDUAL FORCE     -2.670E-05   AT NODE       2012   DOF  1
  CORRESPONDING RESIDUAL FORCE     -2.670E-05
 LARGEST INCREMENT OF DISP.         5.000E-03   AT NODE         21   DOF  1
 LARGEST CORRECTION TO DISP.        2.385E-06   AT NODE       1005   DOF  1
          THE FORCE     EQUILIBRIUM EQUATIONS HAVE CONVERGED

 ITERATION SUMMARY FOR THE INCREMENT:   2 TOTAL ITERATIONS, OF WHICH
   0 ARE SEVERE DISCONTINUITY ITERATIONS AND  2 ARE EQUILIBRIUM ITERATIONS.

 TIME INCREMENT COMPLETED  1.000E-02,  FRACTION OF STEP COMPLETED  0.946    
 STEP TIME COMPLETED       0.946    ,  TOTAL TIME COMPLETED        0.946    


  INCREMENT   106 STARTS. ATTEMPT NUMBER  1, TIME INCREMENT  1.000E-02
 
	SYMMETRIC NEW DIRECT SPARSE SOLVER RUNNING ON
 	1 HOST x 1 MPI RANK PER HOST x 1 THREAD PER RANK
        NUMBER OF EQUATIONS:  7794
        NUMBER OF RHS:        1
        NUMBER OF FLOPS:      1.008e+09
        SOLVER ELAPSED TIME:  44ms

               CONVERGENCE CHECKS FOR EQUILIBRIUM ITERATION     1


 AVERAGE FORCE                      0.434       TIME AVG. FORCE       0.230    
 LARGEST SCALED RESIDUAL FORCE      1.208E-03   AT NODE       2012   DOF  1
  CORRESPONDING RESIDUAL FORCE      1.208E-03
 LARGEST INCREMENT OF DISP.         5.000E-03   AT NODE         21   DOF  1
 LARGEST CORRECTION TO DISP.       -7.010E-05   AT NODE        212   DOF  1
          FORCE     EQUILIBRIUM NOT ACHIEVED WITHIN TOLERANCE.
 
	SYMMETRIC NEW DIRECT SPARSE SOLVER RUNNING ON
 	1 HOST x 1 MPI RANK PER HOST x 1 THREAD PER RANK
        NUMBER OF EQUATIONS:  7794
        NUMBER OF RHS:        1
        NUMBER OF FLOPS:      1.008e+09
        SOLVER ELAPSED TIME:  42ms

               CONVERGENCE CHECKS FOR EQUILIBRIUM ITERATION     2


 AVERAGE FORCE                      0.434       TIME AVG. FORCE       0.230    
 LARGEST SCALED RESIDUAL FORCE     -2.905E-05   AT NODE       2012   DOF  1
  CORRESPONDING RESIDUAL FORCE     -2.905E-05
 LARGEST INCREMENT OF DISP.         5.000E-03   AT NODE         21   DOF  1
 LARGEST CORRECTION TO DISP.        2.404E-06   AT NODE       1005   DOF  1
          THE FORCE     EQUILIBRIUM EQUATIONS HAVE CONVERGED

 ITERATION SUMMARY FOR THE INCREMENT:   2 TOTAL ITERATIONS, OF WHICH
   0 ARE SEVERE DISCONTINUITY ITERATIONS AND  2 ARE EQUILIBRIUM ITERATIONS.

 TIME INCREMENT COMPLETED  1.000E-02,  FRACTION OF STEP COMPLETED  0.956    
 STEP TIME COMPLETED       0.956    ,  TOTAL TIME COMPLETED        0.956    


  INCREMENT   107 STARTS. ATTEMPT NUMBER  1, TIME INCREMENT  1.000E-02
 
	SYMMETRIC NEW DIRECT SPARSE SOLVER RUNNING ON
 	1 HOST x 1 MPI RANK PER HOST x 1 THREAD PER RANK
        NUMBER OF EQUATIONS:  7794
        NUMBER OF RHS:        1
        NUMBER OF FLOPS:      1.008e+09
        SOLVER ELAPSED TIME:  42ms

               CONVERGENCE CHECKS FOR EQUILIBRIUM ITERATION     1


 AVERAGE FORCE                      0.437       TIME AVG. FORCE       0.232    
 LARGEST SCALED RESIDUAL FORCE      1.263E-03   AT NODE       2012   DOF  1
  CORRESPONDING RESIDUAL FORCE      1.263E-03
 LARGEST INCREMENT OF DISP.         5.000E-03   AT NODE         21   DOF  1
 LARGEST CORRECTION TO DISP.       -6.897E-05   AT NODE        212   DOF  1
          FORCE     EQUILIBRIUM NOT ACHIEVED WITHIN TOLERANCE.
 
	SYMMETRIC NEW DIRECT SPARSE SOLVER RUNNING ON
 	1 HOST x 1 MPI RANK PER HOST x 1 THREAD PER RANK
        NUMBER OF EQUATIONS:  7794
        NUMBER OF RHS:        1
        NUMBER OF FLOPS:      1.008e+09
        SOLVER ELAPSED TIME:  42ms

               CONVERGENCE CHECKS FOR EQUILIBRIUM ITERATION     2


 AVERAGE FORCE                      0.437       TIME AVG. FORCE       0.232    
 LARGEST SCALED RESIDUAL FORCE     -2.860E-05   AT NODE       2012   DOF  1
  CORRESPONDING RESIDUAL FORCE     -2.860E-05
 LARGEST INCREMENT OF DISP.         5.000E-03   AT NODE         21   DOF  1
 LARGEST CORRECTION TO DISP.        2.420E-06   AT NODE       1005   DOF  1
          THE FORCE     EQUILIBRIUM EQUATIONS HAVE CONVERGED

 ITERATION SUMMARY FOR THE INCREMENT:   2 TOTAL ITERATIONS, OF WHICH
   0 ARE SEVERE DISCONTINUITY ITERATIONS AND  2 ARE EQUILIBRIUM ITERATIONS.

 TIME INCREMENT COMPLETED  1.000E-02,  FRACTION OF STEP COMPLETED  0.966    
 STEP TIME COMPLETED       0.966    ,  TOTAL TIME COMPLETED        0.966    


  INCREMENT   108 STARTS. ATTEMPT NUMBER  1, TIME INCREMENT  1.000E-02
 
	SYMMETRIC NEW DIRECT SPARSE SOLVER RUNNING ON
 	1 HOST x 1 MPI RANK PER HOST x 1 THREAD PER RANK
        NUMBER OF EQUATIONS:  7794
        NUMBER OF RHS:        1
        NUMBER OF FLOPS:      1.008e+09
        SOLVER ELAPSED TIME:  42ms

               CONVERGENCE CHECKS FOR EQUILIBRIUM ITERATION     1


 AVERAGE FORCE                      0.440       TIME AVG. FORCE       0.234    
 LARGEST SCALED RESIDUAL FORCE      1.334E-03   AT NODE       2012   DOF  1
  CORRESPONDING RESIDUAL FORCE      1.334E-03
 LARGEST INCREMENT OF DISP.         5.000E-03   AT NODE         21   DOF  1
 LARGEST CORRECTION TO DISP.       -6.809E-05   AT NODE        212   DOF  1
          FORCE     EQUILIBRIUM NOT ACHIEVED WITHIN TOLERANCE.
 
	SYMMETRIC NEW DIRECT SPARSE SOLVER RUNNING ON
 	1 HOST x 1 MPI RANK PER HOST x 1 THREAD PER RANK
        NUMBER OF EQUATIONS:  7794
        NUMBER OF RHS:        1
        NUMBER OF FLOPS:      1.008e+09
        SOLVER ELAPSED TIME:  42ms

               CONVERGENCE CHECKS FOR EQUILIBRIUM ITERATION     2


 AVERAGE FORCE                      0.440       TIME AVG. FORCE       0.234    
 LARGEST SCALED RESIDUAL FORCE     -2.834E-05   AT NODE       2012   DOF  1
  CORRESPONDING RESIDUAL FORCE     -2.834E-05
 LARGEST INCREMENT OF DISP.         5.000E-03   AT NODE         21   DOF  1
 LARGEST CORRECTION TO DISP.        2.444E-06   AT NODE       1005   DOF  1
          THE FORCE     EQUILIBRIUM EQUATIONS HAVE CONVERGED

 ITERATION SUMMARY FOR THE INCREMENT:   2 TOTAL ITERATIONS, OF WHICH
   0 ARE SEVERE DISCONTINUITY ITERATIONS AND  2 ARE EQUILIBRIUM ITERATIONS.

 TIME INCREMENT COMPLETED  1.000E-02,  FRACTION OF STEP COMPLETED  0.976    
 STEP TIME COMPLETED       0.976    ,  TOTAL TIME COMPLETED        0.976    


  INCREMENT   109 STARTS. ATTEMPT NUMBER  1, TIME INCREMENT  1.000E-02
 
	SYMMETRIC NEW DIRECT SPARSE SOLVER RUNNING ON
 	1 HOST x 1 MPI RANK PER HOST x 1 THREAD PER RANK
        NUMBER OF EQUATIONS:  7794
        NUMBER OF RHS:        1
        NUMBER OF FLOPS:      1.008e+09
        SOLVER ELAPSED TIME:  42ms

               CONVERGENCE CHECKS FOR EQUILIBRIUM ITERATION     1


 AVERAGE FORCE                      0.443       TIME AVG. FORCE       0.236    
 LARGEST SCALED RESIDUAL FORCE      1.402E-03   AT NODE       2012   DOF  1
  CORRESPONDING RESIDUAL FORCE      1.402E-03
 LARGEST INCREMENT OF DISP.         5.000E-03   AT NODE         21   DOF  1
 LARGEST CORRECTION TO DISP.       -6.716E-05   AT NODE        212   DOF  1
          FORCE     EQUILIBRIUM NOT ACHIEVED WITHIN TOLERANCE.
 
	SYMMETRIC NEW DIRECT SPARSE SOLVER RUNNING ON
 	1 HOST x 1 MPI RANK PER HOST x 1 THREAD PER RANK
        NUMBER OF EQUATIONS:  7794
        NUMBER OF RHS:        1
        NUMBER OF FLOPS:      1.008e+09
        SOLVER ELAPSED TIME:  43ms

               CONVERGENCE CHECKS FOR EQUILIBRIUM ITERATION     2


 AVERAGE FORCE                      0.443       TIME AVG. FORCE       0.236    
 LARGEST SCALED RESIDUAL FORCE     -2.764E-05   AT NODE       2012   DOF  1
  CORRESPONDING RESIDUAL FORCE     -2.764E-05
 LARGEST INCREMENT OF DISP.         5.000E-03   AT NODE         21   DOF  1
 LARGEST CORRECTION TO DISP.        2.463E-06   AT NODE       1477   DOF  1
          THE FORCE     EQUILIBRIUM EQUATIONS HAVE CONVERGED

 ITERATION SUMMARY FOR THE INCREMENT:   2 TOTAL ITERATIONS, OF WHICH
   0 ARE SEVERE DISCONTINUITY ITERATIONS AND  2 ARE EQUILIBRIUM ITERATIONS.

 TIME INCREMENT COMPLETED  1.000E-02,  FRACTION OF STEP COMPLETED  0.986    
 STEP TIME COMPLETED       0.986    ,  TOTAL TIME COMPLETED        0.986    


  INCREMENT   110 STARTS. ATTEMPT NUMBER  1, TIME INCREMENT  1.000E-02
 
	SYMMETRIC NEW DIRECT SPARSE SOLVER RUNNING ON
 	1 HOST x 1 MPI RANK PER HOST x 1 THREAD PER RANK
        NUMBER OF EQUATIONS:  7794
        NUMBER OF RHS:        1
        NUMBER OF FLOPS:      1.008e+09
        SOLVER ELAPSED TIME:  42ms

               CONVERGENCE CHECKS FOR EQUILIBRIUM ITERATION     1


 AVERAGE FORCE                      0.445       TIME AVG. FORCE       0.238    
 LARGEST SCALED RESIDUAL FORCE      1.409E-03   AT NODE       2012   DOF  1
  CORRESPONDING RESIDUAL FORCE      1.409E-03
 LARGEST INCREMENT OF DISP.         5.000E-03   AT NODE         21   DOF  1
 LARGEST CORRECTION TO DISP.       -6.611E-05   AT NODE        212   DOF  1
          FORCE     EQUILIBRIUM NOT ACHIEVED WITHIN TOLERANCE.
 
	SYMMETRIC NEW DIRECT SPARSE SOLVER RUNNING ON
 	1 HOST x 1 MPI RANK PER HOST x 1 THREAD PER RANK
        NUMBER OF EQUATIONS:  7794
        NUMBER OF RHS:        1
        NUMBER OF FLOPS:      1.008e+09
        SOLVER ELAPSED TIME:  42ms

               CONVERGENCE CHECKS FOR EQUILIBRIUM ITERATION     2


 AVERAGE FORCE                      0.445       TIME AVG. FORCE       0.238    
 LARGEST SCALED RESIDUAL FORCE     -2.741E-05   AT NODE       2012   DOF  1
  CORRESPONDING RESIDUAL FORCE     -2.741E-05
 LARGEST INCREMENT OF DISP.         5.000E-03   AT NODE         21   DOF  1
 LARGEST CORRECTION TO DISP.        2.462E-06   AT NODE       1477   DOF  1
          THE FORCE     EQUILIBRIUM EQUATIONS HAVE CONVERGED

 ITERATION SUMMARY FOR THE INCREMENT:   2 TOTAL ITERATIONS, OF WHICH
   0 ARE SEVERE DISCONTINUITY ITERATIONS AND  2 ARE EQUILIBRIUM ITERATIONS.

 TIME INCREMENT COMPLETED  1.000E-02,  FRACTION OF STEP COMPLETED  0.996    
 STEP TIME COMPLETED       0.996    ,  TOTAL TIME COMPLETED        0.996    


  INCREMENT   111 STARTS. ATTEMPT NUMBER  1, TIME INCREMENT  4.151E-03
 
	SYMMETRIC NEW DIRECT SPARSE SOLVER RUNNING ON
 	1 HOST x 1 MPI RANK PER HOST x 1 THREAD PER RANK
        NUMBER OF EQUATIONS:  7794
        NUMBER OF RHS:        1
        NUMBER OF FLOPS:      1.008e+09
        SOLVER ELAPSED TIME:  43ms

               CONVERGENCE CHECKS FOR EQUILIBRIUM ITERATION     1


 AVERAGE FORCE                      0.447       TIME AVG. FORCE       0.240    
 LARGEST SCALED RESIDUAL FORCE      1.212E-04   AT NODE       2012   DOF  1
  CORRESPONDING RESIDUAL FORCE      1.212E-04
 LARGEST INCREMENT OF DISP.         2.075E-03   AT NODE         21   DOF  1
 LARGEST CORRECTION TO DISP.       -1.202E-05   AT NODE       1853   DOF  1
          THE FORCE     EQUILIBRIUM EQUATIONS HAVE CONVERGED

 ITERATION SUMMARY FOR THE INCREMENT:   1 TOTAL ITERATIONS, OF WHICH
   0 ARE SEVERE DISCONTINUITY ITERATIONS AND  1 ARE EQUILIBRIUM ITERATIONS.

 TIME INCREMENT COMPLETED  4.151E-03,  FRACTION OF STEP COMPLETED   1.00    
 STEP TIME COMPLETED        1.00    ,  TOTAL TIME COMPLETED         1.00    


          THE ANALYSIS HAS BEEN COMPLETED



     ANALYSIS SUMMARY:
     TOTAL OF        111  INCREMENTS
                       0  CUTBACKS IN AUTOMATIC INCREMENTATION
                     229  ITERATIONS INCLUDING CONTACT ITERATIONS IF PRESENT
                     229  PASSES THROUGH THE EQUATION SOLVER OF WHICH 
                     229  INVOLVE MATRIX DECOMPOSITION, INCLUDING
                       0  DECOMPOSITION(S) OF THE MASS MATRIX
                       1  REORDERING OF EQUATIONS TO MINIMIZE WAVEFRONT
                       0  ADDITIONAL RESIDUAL EVALUATIONS FOR LINE SEARCHES
                       0  ADDITIONAL OPERATOR EVALUATIONS FOR LINE SEARCHES
                       1  WARNING MESSAGES DURING USER INPUT PROCESSING
                       0  WARNING MESSAGES DURING ANALYSIS
                       0  ANALYSIS WARNINGS ARE NUMERICAL PROBLEM MESSAGES
                       0  ANALYSIS WARNINGS ARE NEGATIVE EIGENVALUE MESSAGES
                       0  ERROR MESSAGES



     JOB TIME SUMMARY
       USER TIME (SEC)      =     2.83E+02
       SYSTEM TIME (SEC)    =      21.    
       TOTAL CPU TIME (SEC) =     3.04E+02
       WALLCLOCK TIME (SEC) =          314
       MEMORY PEAK (GB)     =            2
